20
Properties=species:S:1:pos:R:3 energy=-11531.291553845173 pbc="F F F"
O       -2.49969881      -0.64909849       1.52782372
C       -1.70409564      -0.68219857       0.64336194
C       -1.78918668      -1.27313580      -0.72405600
C       -0.39619617      -1.57377731      -1.29059344
C        0.53882657      -0.35472949      -1.22330910
C        0.76279949       0.11587134       0.18485824
H        1.33566472      -0.54525739       0.82971663
C        0.92084175       1.57543959       0.39390074
O        0.61704559       2.39529087      -0.45061723
C        1.46266708       1.99124147       1.73452286
H       -0.53677326      -0.12230815       0.81772045
H       -2.41532950      -2.18981482      -0.71314732
H       -2.32752681      -0.55476780      -1.38427355
H        0.05422636      -2.42622031      -0.74462716
H       -0.49220836      -1.90502741      -2.34361888
H        1.51302920      -0.60915958      -1.69174036
H        0.12504470       0.47676597      -1.83955472
H        0.87186125       1.58612549       2.56504747
H        2.49864091       1.65731218       1.87278997
H        1.46036764       3.08744821       1.83579574
