20
Properties=species:S:1:pos:R:3 energy=-11531.812585274067 pbc="F F F"
O        0.70329200      -0.48562000      -0.22595700
C        1.88279400      -0.34306000       0.00339300
C        2.77173400      -1.52425300       0.34781500
C        3.90579300      -1.71056800      -0.66300300
C        4.84069200      -0.49213900      -0.78056100
C        5.47353400      -0.15615400       0.50916000
H        6.19127300      -0.83386300       0.94313800
C        5.09815600       1.07514800       1.22118500
O        4.09247400       1.70318200       0.93808300
C        6.01789300       1.51067700       2.32512000
H        2.37804800       0.64505800      -0.00879200
H        3.17780100      -1.37996300       1.36897400
H        2.16035200      -2.45005800       0.39643900
H        4.49404000      -2.60728200      -0.38224000
H        3.47808200      -1.92999700      -1.66321700
H        5.62788100      -0.70835200      -1.53765600
H        4.27370500       0.37808200      -1.18423300
H        6.04139000       0.78421800       3.14783100
H        7.04945900       1.64199600       1.97342300
H        5.69361300       2.47264200       2.75278100
