22
Properties=species:S:1:pos:R:3 energy=-13590.265843549796 pbc="F F F"
O       -1.97672612       1.54561400      -2.21087885
C       -0.89821609       1.01439239      -2.06854397
C        0.35725322       1.81850256      -1.80244002
C        1.22434553       1.18749384      -0.71258204
C        0.59339044       1.28008459       0.68699523
C       -0.54963547       0.32587893       0.86446289
C       -0.33247859      -1.02350163       1.36869610
O       -0.42622371      -1.10452087       0.07468658
O       -0.35006481      -2.94456709      -0.08883281
C       -0.17483165      -2.09707757       2.27621767
H       -0.76943499      -0.08005620      -2.12063357
H        0.93208047       1.90004596      -2.74936678
H        0.08931486       2.86332191      -1.54056268
H        1.43249001       0.12302483      -0.95932179
H        2.21250508       1.69048614      -0.69778894
H        1.37507537       1.09898395       1.45456653
H        0.23726848       2.31712674       0.87288097
H       -1.07485308      -3.13905701      -0.63346782
H       -1.55746422       0.73366837       0.79378406
H       -0.49198662      -3.02994672       1.51741382
H        0.86178743      -2.42272235       2.45440510
H       -0.71359553      -2.05717479       3.22031031
