9
Properties=species:S:1:pos:R:3 energy=-5228.88933119091 pbc="F F F"
C       -7.07481700       0.65586000       1.05870000
C       -5.69574200       1.06130800       1.39001000
H       -7.64026400       0.35436300       1.95851000
H       -7.08711400      -0.19785800       0.36825500
H       -7.63178600       1.47627100       0.58709300
C       -4.84395100       1.20838000       2.37779900
H       -3.83027300       1.55975500       2.21859700
O       -5.02750200       0.96586900       3.76090300
H       -5.95575100       0.64261200       3.91570400
