22
Properties=species:S:1:pos:R:3 energy=-13591.941119061119 pbc="F F F"
C        3.44792000      -1.18009700       2.01201600
C        2.32170900      -0.68359800       1.09284800
C        2.47145800      -1.17375600      -0.35883700
C        2.36297800      -2.63466400      -0.48226500
C        4.22139900      -3.02838000       3.55668400
C        3.07666500      -2.47131400       2.74389600
H        4.37108900      -1.34193200       1.41230600
H        3.69549400      -0.39284500       2.75050900
H        1.33363800      -0.98323800       1.49144000
H        2.31674900       0.42499100       1.08799900
H        1.71386400      -0.67540800      -0.99989900
H        3.46768700      -0.85480000      -0.75549100
C        1.14445400      -3.44628700      -0.57293300
H        5.23631800      -2.75790500       3.22425700
H        2.19207800      -2.31815600       3.39559900
H        2.76032200      -3.24971400       2.01401300
H        0.57873200      -3.21777500      -1.49163800
H        0.47195000      -3.25343400       0.27931300
H        1.35680900      -4.52770500      -0.58543900
O        4.03476400      -3.74642900       4.51413600
O        4.59583300      -2.91369400      -0.46034500
O        3.50737700      -3.45596300      -0.53210800
