22
Properties=species:S:1:pos:R:3 energy=-1886.5886567260204 pbc="F F F"
C        0.96630287       0.66405039       0.68485310
C        1.34767335       0.14318259      -0.70812068
C        1.69842826      -1.34880368      -0.65163148
C        0.55350919      -2.14463243      -0.06203080
C       -0.26925049      -1.53366677       0.95583364
C       -0.29323335      -0.04595780       1.17693832
H        1.79397235       0.48744866       1.39710041
H        0.80590867       1.75762313       0.66349828
H        0.50855868       0.29901523      -1.40981609
H        2.18638601       0.72211117      -1.11155528
H        1.98601591      -1.71869209      -1.65212303
H        2.59762458      -1.47965408      -0.02987916
C       -0.23038064      -3.09013814      -0.94043893
H       -1.25403355      -1.97936417       1.11641044
H       -0.48002018       0.19920943       2.23064110
H       -1.17715852       0.35501410       0.62937600
H        0.22898215      -3.48156273      -1.82179808
H       -1.10225385      -2.58652628      -1.25440571
H       -0.56171377      -3.94098361      -0.41880729
O        0.80783971      -2.91854191       2.27726425
O        1.94888552      -3.22722850       1.81635287
O        1.95665709      -3.60793248       0.60557814
