24
Properties=species:S:1:pos:R:3 energy=-2747.400788326865 pbc="F F F"
O       -1.12334805       1.99044288       1.99079809
C       -0.84628576       2.52177042       0.98030465
C       -1.40543635       2.57724924      -0.37516077
C       -2.93098279       2.70692134      -0.33867502
C       -3.38057962       4.09886549       0.12031859
C       -4.90116034       4.18680223       0.25498808
H       -5.22210842       5.16268060       0.68906518
C       -5.61535734       3.98631252      -1.09435391
O       -5.29849548       4.66408388      -2.04458282
C       -6.68928378       2.95397601      -1.12524135
H       -5.99316630       3.38462948       2.82379777
H       -0.96448771       3.42794163      -0.93689802
H       -1.11222567       1.65132384      -0.92592830
H       -3.31005980       2.48844281      -1.35587200
H       -3.35311389       1.92331404       0.32521347
H       -2.91861889       4.35376456       1.09489628
H       -3.04613187       4.87135020      -0.60396612
H       -7.41425766       3.11070845      -0.30800735
H       -7.23002380       2.96193195      -2.08029563
H       -6.28115650       1.94369664      -0.97031412
O       -5.23445716       3.10037028       1.15689607
O       -6.37017434       3.53685142       1.90176106
O        1.30759903       4.49375642      -0.26909378
O        0.95754251       3.84433369       0.61177996
