19
Properties=species:S:1:pos:R:3 energy=-11513.139187268765 pbc="F F F"
O        2.07858800       1.12869800      -1.35492600
C        1.69410300       0.14150700      -0.76594500
C        2.52662400      -1.10072300      -0.57300300
C        3.83958700      -1.09633000      -1.35942600
C        4.81203500      -0.00641200      -0.85682000
C        5.21667600      -0.17396300       0.48123100
C        5.15257100      -0.78397700       1.74872600
O        4.06735200      -1.00847600       2.28266800
C        6.45993200      -1.08054100       2.42637500
H        0.68738800       0.10054400      -0.31674900
H        2.74060800      -1.21027000       0.52504000
H        1.93160700      -1.99911900      -0.83178800
H        4.31836800      -2.09160600      -1.29055300
H        3.63114400      -0.91573500      -2.43361200
H        5.70084200       0.06670400      -1.53063900
H        4.31043700       1.00376300      -0.97036500
H        7.12245300      -1.69210100       1.80199300
H        7.00058600      -0.15430700       2.66838800
H        6.29577100      -1.61943300       3.37189000
