22
Properties=species:S:1:pos:R:3 energy=-15622.770080026557 pbc="F F F"
O       -0.29975800       0.06629900       2.90253800
C        0.14639900       1.14388500       3.22908600
C        0.24206100       2.34674800       2.31323200
C       -0.32076100       2.10520000       0.96682900
C        0.52786000       1.59970100      -0.13090900
C       -0.23813200       0.78435800      -1.17888900
H        0.46251400       0.38975100      -1.96324700
C       -1.33018700       1.61992700      -1.87529800
O       -1.03822300       2.68831600      -2.36423300
C       -2.69585700       1.02864200      -1.93196200
H        0.52547500       1.31435300       4.25118100
H       -0.27710900       3.20917300       2.79332900
H        1.30828300       2.66484500       2.24892200
H       -1.07704200      -0.34997800       1.18562900
H       -1.37071500       2.27696000       0.79900100
H        1.00743700       2.47279400      -0.64152500
H        1.36214500       0.97912000       0.26249300
H       -3.10772300       0.89322200      -0.91482200
H       -3.39264100       1.64900200      -2.50935900
H       -2.68305600       0.01582000      -2.36442400
O       -1.66664800      -0.28652500       0.34954900
O       -0.71253600      -0.47892100      -0.67075200
