22
Properties=species:S:1:pos:R:3 energy=-15622.025187109995 pbc="F F F"
O       -1.33620650       0.63500846       3.37144285
C       -1.21263118       1.01584425       2.23126422
C       -0.05414124       1.90185686       1.80984901
C        0.41604101       1.65161915       0.40703191
C        1.06371464       0.32646807       0.10348108
C        0.04113185      -0.73209173      -0.35149572
H       -0.60421077      -1.06547879       0.48878237
C        0.70106853      -1.94204545      -1.02848259
O        1.68999475      -2.44118426      -0.54820670
C        0.02696754      -2.43880725      -2.26328098
H       -1.93127105       0.75686905       1.43313851
H       -0.36484173       2.96184472       1.94500603
H        0.79037886       1.77461553       2.52713168
H       -0.70946445       1.69493761      -0.39568596
H        0.89157148       2.51279353      -0.07388087
H        1.83765843       0.45199639      -0.68329811
H        1.60992924      -0.06745824       0.98995121
H       -0.16222986      -1.62703182      -2.98579878
H        0.62382439      -3.21084466      -2.77174429
H       -0.95651226      -2.87940764      -2.03665509
O       -1.55508259       0.82661594      -0.78643330
O       -0.80568908      -0.10611972      -1.38211648
