22
Properties=species:S:1:pos:R:3 energy=-1885.1525753735448 pbc="F F F"
C        3.52219442      -1.19533706       2.03971434
C        2.32640152      -0.78671030       1.16089146
C        2.49576437      -1.23983208      -0.29532044
C        2.26139410      -2.65894805      -0.69972105
C        4.25613861      -3.09474514       3.63894442
C        3.12882021      -2.36724623       2.94020053
H        4.39989156      -1.45315328       1.40562040
H        3.84253877      -0.32978638       2.65746400
H        1.36782297      -1.19085202       1.58268587
H        2.21219176       0.32326458       1.21367515
H        1.82832875      -0.63171147      -0.92759978
H        3.81473552      -0.96621931      -1.02699738
C        1.07177405      -3.53058593      -0.61760632
H        5.27208961      -2.95421869       3.23126421
H        2.39384144      -1.99545062       3.69002554
H        2.56037623      -3.12980647       2.35002582
H        0.54283723      -3.52766113      -1.58633363
H        0.35369317      -3.31131889       0.18972252
H        1.41687647      -4.56840064      -0.48937769
O        4.02515199      -3.81090237       4.59065007
O        4.33915450      -2.28486122      -0.43330840
O        3.24726972      -3.17762028      -1.27855863
