9
Properties=species:S:1:pos:R:3 energy=-5230.014029901451 pbc="F F F"
C       -3.02511300       3.44346800       0.15074800
C       -3.35841100       2.17220800       0.58365000
H       -3.57438000       3.92760500      -0.64567200
H       -2.20613100       4.01318000       0.58215800
H       -4.19017900       1.66548000       0.10343900
C       -2.73067500       1.45384100       1.59047100
H       -3.04488400       0.46093100       1.87826900
O       -1.65367600       1.87684700       2.34871900
H       -1.37515700       2.79053500       2.07393300
