9
Properties=species:S:1:pos:R:3 energy=-5226.71400804412 pbc="F F F"
C       -1.13653100      -0.39392641      -0.76005892
C        0.06167183       0.19962452      -0.34193017
H       -2.09031400       0.00647221      -0.45492288
H       -1.15727268      -1.41216728      -1.11486063
H       -0.43974886       0.46106739      -1.61286681
C        1.07937998       0.51428340       0.42053128
H        1.91565682       1.16874033       0.19603343
O        1.25176284       0.03163600       1.70177498
H        0.51539506      -0.57573016       1.96629972
