22
Properties=species:S:1:pos:R:3 energy=-13596.200904070944 pbc="F F F"
C        5.28470900      -8.56291700      -2.71957400
C        6.10157300      -7.58677900      -3.56858100
C        6.14918800      -7.95733600      -5.05338700
C        4.92047200      -7.40345600      -5.81483000
C        3.12088100      -7.21144000      -2.73454900
C        3.77784500      -8.54369700      -3.00322900
H        5.66026200      -9.59688800      -2.86444000
H        5.45767100      -8.32950200      -1.64823200
H        5.71061600      -6.55056500      -3.44475200
H        7.14836900      -7.54145000      -3.19546000
H        6.23627200      -9.05464900      -5.21115800
H        7.58189900      -7.67827700      -6.42211100
C        4.87388300      -5.93509300      -6.04400500
H        2.19063800      -7.25559100      -2.14342500
H        3.58955300      -8.81657700      -4.07240800
H        3.28578100      -9.34575700      -2.41871100
H        5.87669900      -5.48988700      -6.13305800
H        4.38677400      -5.44393300      -5.17513000
H        4.28320200      -5.66850700      -6.92947200
O        3.54612500      -6.15182600      -3.14271600
O        7.33570300      -7.31103300      -5.54946300
O        4.05212700      -8.17454400      -6.16503300
