22
Properties=species:S:1:pos:R:3 energy=-13591.393251763327 pbc="F F F"
C       -0.38691887       0.02945041       1.40734423
C        0.04893249       0.25519272      -0.04532216
C       -0.31115601      -0.88463407      -0.93073299
C       -0.14153025      -0.82927849      -2.33456678
C       -0.48532349       1.03775100       3.72310244
C        0.04262756       1.18707858       2.31317296
H       -1.48825759      -0.09926858       1.46746588
H        0.03652101      -0.92102113       1.79352148
H       -0.39441766       1.19773816      -0.43528251
H        1.15140437       0.41347503      -0.09054792
H       -0.77516211      -1.76607521      -0.47642157
H        1.51795717      -3.16340973      -1.47782544
C        0.13161126       0.39068507      -3.14128268
H       -0.10317081       1.78329442       4.44051880
H        1.14881414       1.26711683       2.33675519
H       -0.31265782       2.15439512       1.89977577
H       -0.69077899       1.11454503      -3.07354111
H        0.26360036       0.13784745      -4.20524810
H        1.05442074       0.89412015      -2.81871908
O       -1.26987233       0.18075752       4.05776579
O        0.96116347      -2.36485629      -1.54278506
O        0.00219335      -2.01490401      -2.86714714
