9
Properties=species:S:1:pos:R:3 energy=-5228.857985031633 pbc="F F F"
C       -2.94426600      -2.48540800      -3.37052600
C       -3.98774700      -1.44419600      -3.32423200
H       -2.14309200      -2.23317500      -4.07614800
H       -3.35410000      -3.46146700      -3.65965000
H       -2.50047100      -2.58713000      -2.36696500
C       -4.56739600      -0.70777900      -2.40404300
H       -5.36500200      -0.00929500      -2.64982300
O       -4.22657000      -0.82673100      -1.02773800
H       -4.40759100       0.04412600      -0.58389200
