22
Properties=species:S:1:pos:R:3 energy=-13589.045108064658 pbc="F F F"
C        0.48482150       1.79932022       0.65036100
C        0.72058609       1.54561778      -0.84311313
C        0.79753883       0.04166476      -1.14160214
C       -0.27434267      -0.75534875      -0.44043359
C       -1.01422353      -0.23775297       0.60887052
C       -0.84253127       1.17266457       1.09878158
H        1.31855651       1.37234567       1.24034004
H        0.48296558       2.88441337       0.86032746
H       -0.09765611       2.00256112      -1.43297564
H        1.65164351       2.04175465      -1.17391140
H        0.73569134      -0.12173268      -2.23655996
H        1.79385428      -0.35080003      -0.84485433
C       -0.69172364      -2.02804184      -1.10852991
H       -1.92103913      -0.74160557       0.94765425
H       -0.91868833       1.19988176       2.20527565
H       -1.69238362       1.78186131       0.72355498
H        0.17525881      -2.59464598      -1.47877673
H       -1.35532345      -1.83093187      -1.96023211
H       -1.22071095      -2.70058536      -0.41774530
O       -0.20319270      -1.21065966       2.19913976
O        0.93849811      -1.33337678       1.79226250
O        1.13240083      -1.93660372       0.75216652
