9
Properties=species:S:1:pos:R:3 energy=-723.0398444608924 pbc="F F F"
C       -6.42442728       1.92306217      -1.31289341
C       -6.54495756       1.39708549       0.05575598
H       -7.22847749       1.52451448      -1.96041946
H       -5.45486118       1.57191296      -1.75005325
H       -6.43944853       3.04005229      -1.37652461
C       -7.01073779       0.23095899       0.59625598
H       -7.50316933      -0.67504443       0.50503784
O       -6.00876406       1.99868178       1.12044722
H       -6.34849779       0.92182426       1.80701071
