22
Properties=species:S:1:pos:R:3 energy=-1889.1592412168447 pbc="F F F"
O       -1.12808899       4.29943047       3.72663846
C       -0.11681444       3.68353215       3.98110012
C        1.22226182       4.37700452       4.11588085
C        2.14566724       3.67970402       5.11464465
C        1.67892100       3.84345845       6.57316776
C        0.52469380       2.99588523       6.92712501
C        0.54680185       1.53713853       6.71635394
O        0.54997322       1.06525249       5.58452613
O        0.95709308      -0.93620492       5.64999407
C        0.54624050       0.69651935       7.94997825
H       -0.11282530       2.58777365       4.12446085
H        1.69918526       4.41185213       3.11309039
H        1.06881022       5.44122838       4.39055429
H        2.23301935       2.60028527       4.86172497
H        3.16845444       4.09559027       5.01698177
H        2.52660690       3.59504361       7.25505560
H        1.44908570       4.91310110       6.77175250
H        0.54948794      -0.95623588       4.76715364
H       -0.36262297       3.43816295       7.35358003
H        0.60227971      -0.38045951       7.68390849
H        1.40472583       0.91322496       8.59946951
H       -0.36301518       0.83710677       8.54863172
