9
Properties=species:S:1:pos:R:3 energy=-724.8416681181226 pbc="F F F"
C       -7.07514200       0.65495800       1.06400100
C       -5.69546900       1.06081800       1.39239500
H       -7.63845500       0.35288200       1.96448500
H       -7.08869600      -0.19820000       0.37349600
H       -7.63338400       1.47492600       0.59401900
C       -4.84196200       1.20875600       2.37857800
H       -3.82854600       1.55987400       2.21736600
O       -5.02316200       0.96753600       3.76216600
H       -5.95123800       0.64481300       3.91879700
9
Properties=species:S:1:pos:R:3 energy=-724.8816770785886 pbc="F F F"
C       -7.07631230       0.65597125       1.06305165
C       -5.70961204       1.05741002       1.40411097
H       -7.65300475       0.37290312       1.96367859
H       -7.09006459      -0.21110746       0.38740590
H       -7.62400532       1.47450620       0.57357596
C       -4.84418290       1.21040709       2.37744641
H       -3.83384159       1.57602946       2.22139013
O       -5.00571922       0.95511169       3.75777542
H       -5.93931130       0.63513164       3.91686798
9
Properties=species:S:1:pos:R:3 energy=-724.9123198165494 pbc="F F F"
C       -7.07792734       0.65694407       1.06237807
C       -5.72279276       1.05494328       1.41526276
H       -7.66747483       0.39304295       1.96238546
H       -7.09147835      -0.22352832       0.40193871
H       -7.61414506       1.47342872       0.55349653
C       -4.84644147       1.21246702       2.37623938
H       -3.83952657       1.59217875       2.22545279
O       -4.98891834       0.94000134       3.75208851
H       -5.92734928       0.62688520       3.91606079
9
Properties=species:S:1:pos:R:3 energy=-724.9360157010882 pbc="F F F"
C       -7.07991943       0.65788448       1.06198168
C       -5.73505744       1.05334419       1.42588476
H       -7.68181901       0.41319436       1.96065179
H       -7.09291916      -0.23543727       0.41698768
H       -7.60386726       1.47174732       0.53385311
C       -4.84868102       1.21492693       2.37495945
H       -3.84547191       1.60827131       2.22951534
O       -4.97296554       0.92238756       3.74511412
H       -5.91535323       0.62004414       3.91635506
9
Properties=species:S:1:pos:R:3 energy=-724.9545449032888 pbc="F F F"
C       -7.08222084       0.65880050       1.06186388
C       -5.74645239       1.05253914       1.43601141
H       -7.69599106       0.43325023       1.95852378
H       -7.09436886      -0.24680900       0.43244607
H       -7.59323600       1.46951576       0.51471807
C       -4.85084485       1.21777796       2.37360913
H       -3.85154860       1.62425655       2.23353916
O       -4.95806696       0.90245294       3.73686109
H       -5.90332444       0.61457892       3.91773041
9
Properties=species:S:1:pos:R:3 energy=-724.969099759903 pbc="F F F"
C       -7.08476386       0.65970016       1.06202608
C       -5.75702390       1.05245453       1.44567708
H       -7.70994475       0.45310342       1.95604761
H       -7.09580930      -0.25761818       0.44820712
H       -7.58231533       1.46678781       0.49616379
C       -4.85287628       1.22101128       2.37219095
H       -3.85762761       1.64008389       2.23748560
O       -4.94442876       0.88038009       3.72733828
H       -5.89126420       0.61046000       3.92016649
9
Properties=species:S:1:pos:R:3 energy=-724.9803530968753 pbc="F F F"
C       -7.08748078       0.66059148       1.06246968
C       -5.76681829       1.05301676       1.45491621
H       -7.72363384       0.47264681       1.95326946
H       -7.09722235      -0.26783950       0.46416411
H       -7.57116932       1.46361724       0.47826265
C       -4.85471860       1.22461801       2.37070742
H       -3.86357993       1.65570276       2.24131602
O       -4.93225711       0.85635162       3.71655453
H       -5.87917379       0.60765784       3.92364292
9
Properties=species:S:1:pos:R:3 energy=-724.9885370131082 pbc="F F F"
C       -7.09030387       0.66148247       1.06319609
C       -5.77588183       1.05415224       1.46376318
H       -7.73701212       0.49177326       1.95023553
H       -7.09858986      -0.27744765       0.48021028
H       -7.55986201       1.46005781       0.46108702
C       -4.85631513       1.22858930       2.36916108
H       -3.86927652       1.67106257       2.24499180
O       -4.92175816       0.83055011       3.70451869
H       -5.86705449       0.60614290       3.92813933
9
Properties=species:S:1:pos:R:3 energy=-724.993528056866 pbc="F F F"
C       -7.09316544       0.66238117       1.06420672
C       -5.78426084       1.05578735       1.47225242
H       -7.75003335       0.51037564       1.94699201
H       -7.09989367      -0.28641731       0.49623889
H       -7.54845749       1.45616329       0.44470929
C       -4.85760916       1.23291630       2.36755443
H       -3.87458837       1.68611276       2.24847429
O       -4.91313808       0.80315817       3.69123961
H       -5.85490760       0.60588563       3.93363535
9
Properties=species:S:1:pos:R:3 energy=-724.9949361799627 pbc="F F F"
C       -7.09599776       0.66329560       1.06550297
C       -5.79200161       1.05784851       1.48041831
H       -7.76265130       0.52834683       1.94358509
H       -7.10111566      -0.29472317       0.51214318
H       -7.53701979       1.45198743       0.42920184
C       -4.85854401       1.23759015       2.36589000
H       -3.87938646       1.70080273       2.25172486
O       -4.90660301       0.77435841       3.67672613
H       -5.84273439       0.60685651       3.94011062
9
Properties=species:S:1:pos:R:3 energy=-724.9921951826589 pbc="F F F"
C       -7.09873311       0.66423377       1.06708624
C       -5.79915044       1.06026210       1.48829529
H       -7.77481974       0.54557969       1.94006095
H       -7.10223767      -0.30233990       0.52781643
H       -7.52561300       1.44758402       0.41463704
C       -4.85906298       1.24260200       2.36417032
H       -3.88354176       1.71508192       2.25470487
O       -4.90235912       0.74433342       3.66098710
H       -5.83053617       0.60902598       3.94754477
9
Properties=species:S:1:pos:R:3 energy=-724.9846514147813 pbc="F F F"
C       -7.10130380       0.66520371       1.06895796
C       -5.80575363       1.06295453       1.49591774
H       -7.78649245       0.56196710       1.93646578
H       -7.10324156      -0.30924219       0.54315187
H       -7.51430116       1.44300681       0.40108727
C       -4.85910938       1.24794299       2.36239790
H       -3.88692526       1.72889974       2.25737568
O       -4.90061257       0.71326580       3.64403138
H       -5.81831420       0.61236451       3.95591743
9
Properties=species:S:1:pos:R:3 energy=-724.971645481506 pbc="F F F"
C       -7.10364209       0.66621344       1.07111952
C       -5.81185748       1.06585220       1.50332008
H       -7.79762318       0.57740192       1.93284577
H       -7.10410918      -0.31540473       0.55804278
H       -7.50314834       1.43830957       0.38862491
C       -4.85862651       1.25360427       2.36057526
H       -3.88940792       1.74220562       2.25969867
O       -4.90156951       0.68133816       3.62586780
H       -5.80606979       0.61684255       3.96520822
9
Properties=species:S:1:pos:R:3 energy=-724.9525787772843 pbc="F F F"
C       -7.10568028       0.66727099       1.07357232
C       -5.81750828       1.06888151       1.51053671
H       -7.80816573       0.59177702       1.92924711
H       -7.10482239      -0.32080220       0.57238239
H       -7.49221860       1.43354606       0.37732234
C       -4.85755768       1.25957697       2.35870494
H       -3.89086074       1.75494898       2.26163519
O       -4.90543611       0.64873310       3.60650522
H       -5.79380421       0.62243057       3.97539679
9
Properties=species:S:1:pos:R:3 energy=-724.9269918291673 pbc="F F F"
C       -7.10735657       0.66838044       1.07631896
C       -5.82274781       1.07195378       1.51763219
H       -7.81807876       0.60499747       1.92571561
H       -7.10536298      -0.32541655       0.58607136
H       -7.48157011       1.42877147       0.36724337
C       -4.85584443       1.26587067       2.35674655
H       -3.89117512       1.76708434       2.26315194
O       -4.91237878       0.61564981       3.58598747
H       -5.78153945       0.62907158       3.98643555
9
Properties=species:S:1:pos:R:3 energy=-724.8947810162778 pbc="F F F"
C       -7.10864227       0.66952399       1.07936858
C       -5.82759254       1.07489594       1.52483976
H       -7.82734840       0.61703656       1.92229501
H       -7.10571243      -0.32927044       0.59905172
H       -7.47122816       1.42404889       0.35840387
C       -4.85341846       1.27259792       2.35441970
H       -3.89035689       1.77859481       2.26424553
O       -4.92234155       0.58238034       3.56455419
H       -5.76941331       0.63655499       3.99812463
9
Properties=species:S:1:pos:R:3 energy=-724.8559441304325 pbc="F F F"
C       -7.10952021       0.67067616       1.08273264
C       -5.83205012       1.07750559       1.53245132
H       -7.83597034       0.62789128       1.91902831
H       -7.10585208      -0.33240064       0.61127985
H       -7.46120656       1.41944421       0.35080302
C       -4.85020804       1.27990711       2.35136056
H       -3.88845164       1.78947344       2.26492291
O       -4.93519113       0.54924904       3.54251311
H       -5.75760388       0.64461682       4.01021126
9
Properties=species:S:1:pos:R:3 energy=-724.8100452170482 pbc="F F F"
C       -7.10997322       0.67181149       1.08642259
C       -5.83612822       1.07958030       1.54075882
H       -7.84394028       0.63755866       1.91595852
H       -7.10576329      -0.33484395       0.62271219
H       -7.45151915       1.41502326       0.34444002
C       -4.84614143       1.28794666       2.34720522
H       -3.88550498       1.79971329       2.26519110
O       -4.95079418       0.51658025       3.52017198
H       -5.74628925       0.65299304       4.02244257
9
Properties=species:S:1:pos:R:3 energy=-724.7557144585641 pbc="F F F"
C       -7.10998415       0.67290453       1.09044987
C       -5.83983449       1.08091765       1.55005421
H       -7.85125389       0.64603574       1.91312863
H       -7.10542742      -0.33663719       0.63330514
H       -7.44217974       1.41085193       0.33931402
C       -4.84114691       1.29686498       2.34158976
H       -3.88156255       1.80930739       2.26505706
O       -4.96901731       0.48469836       3.49783860
H       -5.73564754       0.66141961       4.03456571
9
Properties=species:S:1:pos:R:3 energy=-724.6903424062606 pbc="F F F"
C       -7.10953582       0.67392980       1.09482592
C       -5.84317658       1.08131521       1.56062944
H       -7.85790688       0.65331953       1.91058166
H       -7.10482581      -0.33781715       0.64301512
H       -7.43320214       1.40699608       0.33542423
C       -4.83515273       1.30681051       2.33415025
H       -3.87666998       1.81824881       2.26452780
O       -4.98972719       0.45392773       3.47582073
H       -5.72585687       0.66963249       4.04632785
9
Properties=species:S:1:pos:R:3 energy=-724.6101750705031 pbc="F F F"
C       -7.10861138       0.67486206       1.09956186
C       -5.84616169       1.08057216       1.57277419
H       -7.86389498       0.65940730       1.90836035
H       -7.10393999      -0.33842061       0.65179880
H       -7.42460034       1.40352120       0.33276948
C       -4.82808876       1.31792966       2.32452606
H       -3.87087330       1.82653061       2.26361030
O       -5.01278861       0.42459151       3.45442495
H       -5.71709496       0.67736912       4.05747701
9
Properties=species:S:1:pos:R:3 energy=-724.5117901049298 pbc="F F F"
C       -7.10721232       0.67568947       1.10464830
C       -5.84876893       1.07858475       1.58664245
H       -7.86921689       0.66430954       1.90649182
H       -7.10276091      -0.33848242       0.65962721
H       -7.41639721       1.40047065       0.33132964
C       -4.81998043       1.33024937       2.31255312
H       -3.86424370       1.83414708       2.26231120
O       -5.03795648       0.39693979       3.43388500
H       -5.70951713       0.68445478       4.06781427
9
Properties=species:S:1:pos:R:3 energy=-724.3943583426028 pbc="F F F"
C       -7.10536858       0.67642091       1.11004407
C       -5.85093393       1.07539965       1.60217783
H       -7.87387585       0.66805733       1.90497897
H       -7.10129420      -0.33803450       0.66649371
H       -7.40862946       1.39785349       0.33105504
C       -4.81100136       1.34361137       2.29837201
H       -3.85689134       1.84109436       2.26063666
O       -5.06481536       0.37110947       3.41432179
H       -5.70324389       0.69085092       4.07722290
9
Properties=species:S:1:pos:R:3 energy=-724.2602281727039 pbc="F F F"
C       -7.10311256       0.67706707       1.11570529
C       -5.85258859       1.07107648       1.61930588
H       -7.87787553       0.67068350       1.90382263
H       -7.09954675      -0.33710849       0.67239359
H       -7.40133500       1.39567583       0.33189352
C       -4.80133789       1.35784145       2.28214955
H       -3.84892972       1.84736876       2.25859277
O       -5.09293517       0.34722767       3.39584650
H       -5.69839278       0.69653073       4.08559327
9
Properties=species:S:1:pos:R:3 energy=-724.1157070943636 pbc="F F F"
C       -7.10047664       0.67763862       1.12158805
C       -5.85366478       1.06567486       1.63795211
H       -7.88121959       0.67222088       1.90302361
H       -7.09752545      -0.33573605       0.67732212
H       -7.39455172       1.39394377       0.33379290
C       -4.79117635       1.37276541       2.26405254
H       -3.84047235       1.85296659       2.25618563
O       -5.12188579       0.32542155       3.37857033
H       -5.69508133       0.70146736       4.09281573
9
Properties=species:S:1:pos:R:3 energy=-723.971159056363 pbc="F F F"
C       -7.09749321       0.67814626       1.12764846
C       -5.85409439       1.05925442       1.65804206
H       -7.88391166       0.67270232       1.90258275
H       -7.09523718      -0.33394883       0.68127456
H       -7.38831751       1.39266342       0.33670099
C       -4.78070310       1.38820904       2.24424778
H       -3.83163272       1.85788416       2.25342134
O       -5.15123715       0.30581823       3.36260445
H       -5.69342708       0.70563399       4.09878062
9
Properties=species:S:1:pos:R:3 energy=-723.8396266306365 pbc="F F F"
C       -7.09419465       0.67860065       1.13384264
C       -5.85380930       1.05187476       1.67950124
H       -7.88595541       0.67216064       1.90250085
H       -7.09268884      -0.33177849       0.68424621
H       -7.38267028       1.39184087       0.34056562
C       -4.77010448       1.40399813       2.22290207
H       -3.82252434       1.86211778       2.25030599
O       -5.18055915       0.28854487       3.34806005
H       -5.69354754       0.70900380       4.10337832
9
Properties=species:S:1:pos:R:3 energy=-723.733408053325 pbc="F F F"
C       -7.09061240       0.67901263       1.14013010
C       -5.85275208       1.04360829       1.70223869
H       -7.88736571       0.67065216       1.90277045
H       -7.08989152      -0.32926411       0.68625669
H       -7.37762435       1.39147229       0.34532067
C       -4.75956564       1.41995858       2.20020297
H       -3.81326220       1.86568063       2.24684508
O       -5.20948558       0.27368759       3.33502265
H       -5.69549452       0.71155495       4.10651570
9
Properties=species:S:1:pos:R:3 energy=-723.6594117173161 pbc="F F F"
C       -7.08677018       0.67939425       1.14649746
C       -5.85095011       1.03462895       1.72603226
H       -7.88824649       0.66841963       1.90331818
H       -7.08688987      -0.32650382       0.68751918
H       -7.37300686       1.39147479       0.35078934
C       -4.74926229       1.43591703       2.17650270
H       -3.80397296       1.86871990       2.24303910
O       -5.23815756       0.26100691       3.32337381
H       -5.69879768       0.71330536       4.10823098
9
Properties=species:S:1:pos:R:3 energy=-723.6175811622984 pbc="F F F"
C       -7.08268810       0.67975816       1.15294426
C       -5.84847121       1.02515909       1.75059726
H       -7.88874416       0.66579473       1.90403925
H       -7.08374450      -0.32362392       0.68833915
H       -7.36855569       1.39172777       0.35674204
C       -4.73936563       1.45170051       2.15223200
H       -3.79478889       1.87144673       2.23888621
O       -5.26695814       0.25010807       3.31289784
H       -5.70273769       0.71429187       4.10862499
9
Properties=species:S:1:pos:R:3 energy=-723.6040390127316 pbc="F F F"
C       -7.07838621       0.68011698       1.15947014
C       -5.84538345       1.01542135       1.77564862
H       -7.88900540       0.66310967       1.90482867
H       -7.08051612      -0.32075087       0.68902261
H       -7.36400817       1.39211042       0.36294888
C       -4.73004683       1.46713603       2.12782212
H       -3.78584227       1.87407262       2.23438455
O       -5.29627185       0.24059534       3.30337844
H       -5.70659370       0.71455147       4.10779897
9
Properties=species:S:1:pos:R:3 energy=-723.6154523455023 pbc="F F F"
C       -7.07388459       0.68048335       1.16607471
C       -5.84175490       1.00563839       1.80090129
H       -7.88917687       0.66069668       1.90558146
H       -7.07726547      -0.31801114       0.68987560
H       -7.35910161       1.39250192       0.36917993
C       -4.72147707       1.48205062       2.10370431
H       -3.77726540       1.87680907       2.22953225
O       -5.32648325       0.23207299       3.29459933
H       -5.70964485       0.71412112       4.10585412
9
Properties=species:S:1:pos:R:3 energy=-723.6508075677209 pbc="F F F"
C       -7.06920328       0.68086991       1.17275761
C       -5.83765365       0.99603285       1.82607019
H       -7.88940524       0.65888796       1.90619264
H       -7.07405325      -0.31553118       0.69120413
H       -7.35357334       1.39278146       0.37520530
C       -4.71382752       1.49627129       2.08030980
H       -3.76919056       1.87986760       2.22432744
O       -5.35797687       0.22414531       3.28634421
H       -5.71117029       0.71303780       4.10289167
9
Properties=species:S:1:pos:R:3 energy=-723.7102073778101 pbc="F F F"
C       -7.06436247       0.68128925       1.17951828
C       -5.83314795       0.98682708       1.85087031
H       -7.88983692       0.65801516       1.90655738
H       -7.07094019      -0.31343725       0.69331365
H       -7.34716124       1.39282836       0.38079541
C       -4.70726880       1.50962543       2.05806916
H       -3.76174991       1.88345922       2.21876841
O       -5.39113591       0.21641758       3.27839749
H       -5.71045060       0.71133817       4.09901291
9
Properties=species:S:1:pos:R:3 energy=-723.7921464328966 pbc="F F F"
C       -7.05940018       0.68174469       1.18632663
C       -5.82833889       0.97819202       1.87502692
H       -7.89057446       0.65831702       1.90659551
H       -7.06798815      -0.31182149       0.69641437
H       -7.33969252       1.39254699       0.38577643
C       -4.70188155       1.52199916       2.03730466
H       -3.75505177       1.88771572       2.21287579
O       -5.42612409       0.20865892       3.27065414
H       -5.70700239       0.70900995       4.09432856
9
Properties=species:S:1:pos:R:3 energy=-723.8917190608857 pbc="F F F"
C       -7.05439187       0.68222022       1.19309065
C       -5.82339629       0.97019093       1.89828679
H       -7.89162842       0.65983746       1.90627861
H       -7.06526133      -0.31070453       0.70051680
H       -7.33118171       1.39189415       0.39009138
C       -4.69755776       1.53340183       2.01811141
H       -3.74915458       1.89260269       2.20671707
O       -5.46264499       0.20098204       3.26324113
H       -5.70083707       0.70593820       4.08896916
9
Properties=species:S:1:pos:R:3 energy=-724.0013429691926 pbc="F F F"
C       -7.04941771       0.68269735       1.19971056
C       -5.81849864       0.96287348       1.92039939
H       -7.89299781       0.66259583       1.90558476
H       -7.06282423      -0.31009796       0.70560631
H       -7.32166693       1.39083324       0.39369799
C       -4.69416563       1.54385828       2.00055594
H       -3.74411044       1.89806482       2.20036568
O       -5.50034420       0.19354290       3.25631460
H       -5.69202841       0.70199506       4.08306776
9
Properties=species:S:1:pos:R:3 energy=-724.1127816164569 pbc="F F F"
C       -7.04455787       0.68315761       1.20608655
C       -5.81382445       0.95628933       1.94111423
H       -7.89468161       0.66661152       1.90449205
H       -7.06074137      -0.31001340       0.71166827
H       -7.31118632       1.38932768       0.39655400
C       -4.69157339       1.55339334       1.98470476
H       -3.73997151       1.90404678       2.19389503
O       -5.53886732       0.18649747       3.25003071
H       -5.68065016       0.69705267       4.07675740
9
Properties=species:S:1:pos:R:3 energy=-724.2191144793835 pbc="F F F"
C       -7.03989253       0.68358252       1.21211882
C       -5.80955220       0.95048818       1.96018077
H       -7.89667884       0.67190392       1.90297857
H       -7.05907725      -0.31046245       0.71868803
H       -7.29977800       1.38734088       0.39861715
C       -4.68964924       1.56203187       1.97062440
H       -3.73678991       1.91049325       2.18737853
O       -5.57785998       0.18000170       3.24454561
H       -5.66677607       0.69098315       4.07017113
9
Properties=species:S:1:pos:R:3 energy=-724.31578559173 pbc="F F F"
C       -7.03550185       0.68395361       1.21770757
C       -5.80586039       0.94551968       1.97734850
H       -7.89898847       0.67849238       1.90102240
H       -7.05789638      -0.31145673       0.72665097
H       -7.28748009       1.38483625       0.39984518
C       -4.68826142       1.56979870       1.95838137
H       -3.73461776       1.91734891       2.18088959
O       -5.61696777       0.17421156       3.24001545
H       -5.65047988       0.68365864       4.06344197
9
Properties=species:S:1:pos:R:3 energy=-724.400766755295 pbc="F F F"
C       -7.03146274       0.68425392       1.22275964
C       -5.80291605       0.94142445       1.99239252
H       -7.90160623       0.68639275       1.89860185
H       -7.05725976      -0.31300502       0.73554195
H       -7.27433131       1.38177910       0.40020047
C       -4.68729102       1.57672382       1.94802354
H       -3.73350445       1.92455704       2.17450298
O       -5.65583360       0.16927588       3.23658609
H       -5.63184884       0.67496105       4.05669396
9
Properties=species:S:1:pos:R:3 energy=-724.4745362042956 pbc="F F F"
C       -7.02781409       0.68448398       1.22725912
C       -5.80075299       0.93813772       2.00538560
H       -7.90448967       0.69557966       1.89569791
H       -7.05718776      -0.31508325       0.74533991
H       -7.26037729       1.37815688       0.39969951
C       -4.68676899       1.58289686       1.93938183
H       -3.73346728       1.93204458       2.16830907
O       -5.69406906       0.16526066       3.23428368
H       -5.61112687       0.66488591       4.04994638
9
Properties=species:S:1:pos:R:3 energy=-724.5386421911392 pbc="F F F"
C       -7.02457026       0.68465563       1.23123989
C       -5.79931909       0.93552673       2.01659258
H       -7.90757173       0.70600117       1.89229326
H       -7.05767447      -0.31764616       0.75602000
H       -7.24566807       1.37397133       0.39839366
C       -4.68682299       1.58844593       1.93214721
H       -3.73450289       1.93972793       2.16240833
O       -5.73126548       0.16217842       3.23305714
H       -5.58865901       0.65350203       4.04315094
9
Properties=species:S:1:pos:R:3 energy=-724.5944861846584 pbc="F F F"
C       -7.02174523       0.68478090       1.23473668
C       -5.79856077       0.93345758       2.02628149
H       -7.91078495       0.71760488       1.88837064
H       -7.05871359      -0.32064816       0.76755730
H       -7.23025380       1.36922440       0.39633488
C       -4.68758223       1.59349981       1.92600831
H       -3.73660756       1.94752332       2.15690139
O       -5.76701387       0.16004080       3.23285410
H       -5.56479199       0.64087948       4.03625821
9
Properties=species:S:1:pos:R:3 energy=-724.6430059627327 pbc="F F F"
C       -7.01935293       0.68487180       1.23778423
C       -5.79842446       0.93179639       2.03472037
H       -7.91406184       0.73033842       1.88391276
H       -7.06029880      -0.32404362       0.77992688
H       -7.21418462       1.36391806       0.39357514
C       -4.68917598       1.59818725       1.92065376
H       -3.73977758       1.95534698       2.15188889
O       -5.80090526       0.15885945       3.23362220
H       -5.53987252       0.62708828       4.02921877
9
Properties=species:S:1:pos:R:3 energy=-724.6846740949061 pbc="F F F"
C       -7.01740735       0.68494037       1.24041727
C       -5.79885660       0.93040925       2.04217725
H       -7.91733495       0.74414939       1.87890234
H       -7.06242376      -0.32778695       0.79310382
H       -7.19751067       1.35805427       0.39016639
C       -4.69173346       1.60263702       1.91577221
H       -3.74400923       1.96311514       2.14747145
O       -5.83253065       0.15864601       3.23530908
H       -5.51424732       0.61219850       4.02198319
9
Properties=species:S:1:pos:R:3 energy=-724.719684968977 pbc="F F F"
C       -7.01592242       0.68499863       1.24267051
C       -5.79980362       0.92916232       2.04892013
H       -7.92053680       0.75898539       1.87332214
H       -7.06508216      -0.33183253       0.80706319
H       -7.18028208       1.35163502       0.38616058
C       -4.69538389       1.60697786       1.91105232
H       -3.74929878       1.97074405       2.14374969
O       -5.86148117       0.15941208       3.23786237
H       -5.48826307       0.59628019       4.01450208
9
Properties=species:S:1:pos:R:3 energy=-724.7482723739315 pbc="F F F"
C       -7.01490823       0.68505366       1.24457112
C       -5.80121454       0.92795398       2.05517510
H       -7.92361323       0.77478218       1.86716852
H       -7.06825986      -0.33613335       0.82176836
H       -7.16255705       1.34467122       0.38161025
C       -4.70020910       1.61132309       1.90622662
H       -3.75562208       1.97816292       2.14080432
O       -5.88745516       0.16112808       3.24123209
H       -5.46221475       0.57942121       4.00674662
9
Properties=species:S:1:pos:R:3 energy=-724.7709224815727 pbc="F F F"
C       -7.01436366       0.68509840       1.24612447
C       -5.80304579       0.92677542       2.06104776
H       -7.92654824       0.79144137       1.86047715
H       -7.07192030      -0.34063835       0.83714904
H       -7.14441683       1.33719953       0.37656962
C       -4.70615474       1.61574168       1.90115375
H       -3.76289629       1.98533827       2.13865880
O       -5.91045943       0.16364604       3.24537509
H       -5.43624871       0.56176064       3.99874732
9
Properties=species:S:1:pos:R:3 energy=-724.7880911165291 pbc="F F F"
C       -7.01428559       0.68512324       1.24733207
C       -5.80525514       0.92563442       2.06662217
H       -7.92933267       0.80885850       1.85329069
H       -7.07602291      -0.34529575       0.85312896
H       -7.12594683       1.32926120       0.37109319
C       -4.71314213       1.62029463       1.89571487
H       -3.77102807       1.99224329       2.13732638
O       -5.93055592       0.16679679       3.25024945
H       -5.41048473       0.54344666       3.99054522
9
Properties=species:S:1:pos:R:3 energy=-724.8001387521067 pbc="F F F"
C       -7.01467092       0.68511858       1.24819541
C       -5.80780036       0.92453874       2.07198237
H       -7.93195736       0.82692912       1.84565179
H       -7.08052710      -0.35005377       0.86963183
H       -7.10723245       1.32089749       0.36523547
C       -4.72109258       1.62504297       1.88979116
H       -3.77992409       1.99885118       2.13682029
O       -5.94780654       0.17041119       3.25581326
H       -5.38504259       0.52462750       3.98218142
9
Properties=species:S:1:pos:R:3 energy=-724.8073146655288 pbc="F F F"
C       -7.01551655       0.68507480       1.24871598
C       -5.81063922       0.92349616       2.07721243
H       -7.93441314       0.84554876       1.83760314
H       -7.08539231      -0.35486064       0.88658135
H       -7.08835909       1.31214964       0.35905098
C       -4.72992739       1.63004771       1.88326379
H       -3.78949100       2.00513513       2.13715376
O       -5.96227323       0.17432008       3.26202458
H       -5.36004207       0.50545135       3.97369697
9
Properties=species:S:1:pos:R:3 energy=-724.8097351744758 pbc="F F F"
C       -7.01681935       0.68498231       1.24889528
C       -5.81372947       0.92251445       2.08239641
H       -7.93669085       0.86461294       1.82918740
H       -7.09057795      -0.35966459       0.90390125
H       -7.06941214       1.30305891       0.35259422
C       -4.73956788       1.63536989       1.87601394
H       -3.79963548       2.01106833       2.13834004
O       -5.97401791       0.17835432       3.26884150
H       -5.33560296       0.48606643       3.96513296
9
Properties=species:S:1:pos:R:3 energy=-724.807350435415 pbc="F F F"
C       -7.01857623       0.68483149       1.24873481
C       -5.81702888       0.92160138       2.08761835
H       -7.93878133       0.88401722       1.82044723
H       -7.09604345      -0.36441382       0.92151522
H       -7.05047702       1.29366657       0.34591971
C       -4.74993536       1.64107052       1.86792278
H       -3.81026419       2.01662398       2.14039235
O       -5.98310252       0.18234473       3.27622210
H       -5.31184503       0.46662093       3.95653045
9
Properties=species:S:1:pos:R:3 energy=-724.799894509834 pbc="F F F"
C       -7.02078407       0.68461275       1.24823607
C       -5.82049523       0.92076471       2.09296233
H       -7.94067540       0.90365711       1.81142529
H       -7.10174823      -0.36905657       0.93934699
H       -7.03163910       1.28401384       0.33908195
C       -4.76095113       1.64721062       1.85887148
H       -3.82128378       2.02177526       2.14332394
O       -5.98958898       0.18612218       3.28412444
H       -5.28888806       0.44726308       3.94793051
9
Properties=species:S:1:pos:R:3 energy=-724.7868120646104 pbc="F F F"
C       -7.02343976       0.68431647       1.24740054
C       -5.82408627       0.92001222       2.09851238
H       -7.94236391       0.92342817       1.80216426
H       -7.10765173      -0.37354105       0.95732026
H       -7.01298381       1.27414201       0.33213545
C       -4.77253651       1.65385122       1.84874121
H       -3.83260094       2.02649538       2.14714805
O       -5.99353923       0.18951752       3.29250662
H       -5.26685184       0.42814107       3.93937422
9
Properties=species:S:1:pos:R:3 energy=-724.7671547793067 pbc="F F F"
C       -7.02654020       0.68393305       1.24622973
C       -5.82775978       0.91935169       2.10435257
H       -7.94383770       0.94322592       1.79270681
H       -7.11371335      -0.37781549       0.97535875
H       -6.99459653       1.26409230       0.32513472
C       -4.78461281       1.66105333       1.83741315
H       -3.84412231       2.03075751       2.15187790
O       -5.99501519       0.19236158       3.30132671
H       -5.24585615       0.40940311       3.93090265
9
Properties=species:S:1:pos:R:3 energy=-724.739440754946 pbc="F F F"
C       -7.03008226       0.68345288       1.24472513
C       -5.83147351       0.91879087       2.11056696
H       -7.94508760       0.96294591       1.78309559
H       -7.11989253      -0.38182811       0.99338617
H       -6.97656266       1.25390599       0.31813428
C       -4.79710134       1.66887797       1.82476847
H       -3.85575456       2.03453486       2.15752673
O       -5.99407878       0.19448522       3.31054279
H       -5.22602076       0.39119741       3.92255687
9
Properties=species:S:1:pos:R:3 energy=-724.7014713575057 pbc="F F F"
C       -7.03406285       0.68286637       1.24288824
C       -5.83518523       0.91833754       2.11723961
H       -7.94610444       0.98248365       1.77337327
H       -7.12614869      -0.38552713       1.01132624
H       -6.95896761       1.24362432       0.31118862
C       -4.80992341       1.67738618       1.81068835
H       -3.86740436       2.03780061       2.16410779
O       -5.99079195       0.19571928       3.32011293
H       -5.20746546       0.37367218       3.91437796
9
Properties=species:S:1:pos:R:3 energy=-724.6501028677526 pbc="F F F"
C       -7.03847886       0.68216389       1.24072055
C       -5.83885271       0.91799948       2.12445456
H       -7.94687907       1.00173470       1.76358253
H       -7.13244126      -0.38886077       1.02910266
H       -6.94189678       1.23328855       0.30435228
C       -4.82300032       1.68663896       1.79505395
H       -3.87897836       2.04052796       2.17163430
O       -5.98521661       0.19589461       3.32999522
H       -5.19031002       0.35697562       3.90640697
