9
Properties=species:S:1:pos:R:3 energy=-5228.889633859639 pbc="F F F"
C       -7.07578300       0.65465400       1.06477400
C       -5.69591400       1.06073800       1.39206400
H       -7.63843000       0.35280200       1.96574900
H       -7.08975700      -0.19871200       0.37453400
H       -7.63442800       1.47443300       0.59494500
C       -4.84169500       1.20898600       2.37758500
H       -3.82844000       1.56018700       2.21554900
O       -5.02184400       0.96804200       3.76135800
H       -5.94976300       0.64523300       3.91874400
