6
Properties=species:S:1:pos:R:3 energy=-3148.913600492771 pbc="F F F"
C        1.00870700      -0.04823700      -0.13044800
C        0.51756100       0.57339000      -1.34509300
C        0.06790600       1.14442600      -2.42222200
H        0.63488500      -1.07292500      -0.01221600
H        0.63502900       0.53344200       0.73068900
H        2.10433700      -0.03646300      -0.07540900
