22
Properties=species:S:1:pos:R:3 energy=-1886.7418351482072 pbc="F F F"
C        5.64237693      -4.36327283       0.77221446
C        6.81195174      -4.41467127      -0.23095119
C        6.60513595      -5.54264313      -1.22236564
C        5.88087275      -5.46125890      -2.36818265
C        4.81109604      -3.76707045       3.16319568
C        5.67382628      -3.39481564       1.99994515
H        4.76591211      -3.98941769       0.18551281
H        5.40596030      -5.41174997       1.06411967
H        6.81891534      -3.44230090      -0.78310578
H        7.78275371      -4.43555734       0.28759789
H        7.01560290      -6.71655432      -0.60114843
H        5.81408756      -7.83372425      -2.44287174
C        5.24417739      -4.27059609      -2.97255461
H        4.92492350      -3.06293245       4.01755674
H        6.61298881      -3.01616428       2.41561583
H        5.15174930      -2.50541355       1.68716794
H        4.75116326      -3.64685547      -2.22390340
H        4.48941633      -4.55578388      -3.71339953
H        5.98576628      -3.65207444      -3.48970804
O        3.99626223      -4.66108676       3.15170353
O        6.80228773      -7.27020640      -1.96740884
O        5.69001753      -6.57597501      -3.13956085
