22
Properties=species:S:1:pos:R:3 energy=-1889.2467070070593 pbc="F F F"
C        5.65185362      -4.51871780       0.96016299
C        6.76012155      -4.43444705      -0.11097826
C        6.57768995      -5.60420844      -1.02579565
C        5.93898484      -5.52060573      -2.29786257
C        4.63624489      -3.36091832       2.95705476
C        5.78107550      -3.37996087       1.96884527
H        4.65080191      -4.49496743       0.47876676
H        5.69442009      -5.49939751       1.47755832
H        6.69772164      -3.46935021      -0.65850867
H        7.76861502      -4.45397994       0.36046315
H        6.99294316      -6.56198259      -0.70225810
H        5.99082881      -8.05796728      -2.52668993
C        5.12571681      -4.42411835      -2.84780072
H        4.76019248      -2.64227093       3.78169341
H        6.74674238      -3.45994461       2.50775448
H        5.81854449      -2.40438706       1.43960904
H        4.38267121      -3.95985568      -2.16442889
H        4.59980153      -4.71201261      -3.77367827
H        5.80552709      -3.60716454      -3.16570599
O        3.65785671      -4.06427927       2.85919878
O        5.62930462      -7.30643166      -3.06089196
O        7.00958570      -6.05315712      -2.86703894
