20
Properties=species:S:1:pos:R:3 energy=-1587.58251720146 pbc="F F F"
O        1.36925997      -0.54732672       1.57330947
C        2.17058103      -0.65586541       0.70725354
C        2.45627727      -1.72049374      -0.29162295
C        3.91518646      -1.76704280      -0.76412077
C        4.68255959      -0.44174653      -0.70941199
C        5.02398830      -0.08068579       0.70403380
H        5.64741876      -0.81124674       1.22661554
C        5.28559443       1.34189996       0.99987997
O        4.89744149       2.21154285       0.24672772
C        5.97791123       1.69065703       2.28532932
H        3.41775837       0.11105469       0.96177845
H        2.23110724      -2.69624804       0.21206472
H        1.75032327      -1.63351592      -1.14764226
H        4.43972899      -2.52967331      -0.14199297
H        3.93875294      -2.17063471      -1.79919343
H        5.57981540      -0.50059318      -1.34163202
H        4.06750154       0.37736851      -1.14733825
H        5.47967814       1.27190157       3.16832069
H        7.01892015       1.35347029       2.31404896
H        6.00220145       2.78687198       2.42527548
