22
Properties=species:S:1:pos:R:3 energy=-2441.5549653829457 pbc="F F F"
O        0.88418024      -0.44040989       1.03073143
O       -0.78661197      -0.42283942       1.82917735
C       -1.54872987       0.31046115       1.10691962
O       -2.72045867       0.34149137       0.88105314
C       -0.95607537       1.64632036       0.66439750
C       -0.78755406       2.44667118       1.91614102
C        0.46678950       3.25989523       2.18107357
C        1.44827462       3.75542543       1.16023298
O        2.61586540       3.45950226       1.21099946
C        0.93001543       4.86670063       0.21650167
O        0.32630957       4.61498579      -0.79261784
C        1.28065551       6.20688778       0.76442933
H        0.76008769      -1.14484440       0.36896085
H        0.42050385       1.13282998       0.32783861
H       -1.33486177       2.11983785      -0.23594221
H       -1.67662678       3.09790878       2.08357751
H       -0.80461447       1.73840866       2.80403769
H        0.09690670       4.13104534       2.77151056
H        1.11178316       2.69157026       2.89873904
H        0.84426300       6.36315891       1.76102234
H        2.37550456       6.31184860       0.86140244
H        0.93092773       7.00740216       0.10920593
