16
Properties=species:S:1:pos:R:3 energy=-10445.844069087236 pbc="F F F"
O        1.43064800      -0.19224400       0.81465200
C        2.09442200      -0.09485700      -0.19364100
C        3.08122600      -1.15948900      -0.60751500
C        4.08510100      -0.68567800      -1.65764600
C        5.07458500       0.36234900      -1.11811300
C        6.01718800      -0.21089300      -0.10607000
C        7.22122500      -0.63873300      -0.41235400
O        8.29341600      -1.01202700      -0.67320700
H        2.00173000       0.77484600      -0.86362600
H        3.61448500      -1.54025000       0.29149400
H        2.51658800      -2.04066700      -0.98100800
H        4.64938400      -1.56181500      -2.03735300
H        3.55216200      -0.27047000      -2.53577400
H        5.63326600       0.80671000      -1.96787400
H        4.52420500       1.20787700      -0.65410700
H        5.64879600      -0.27534100       0.91659900
