20
Properties=species:S:1:pos:R:3 energy=-11529.59805429719 pbc="F F F"
O       -3.83598104      -1.54854938      -1.11436753
C       -2.91228619      -0.76767932      -1.06366225
C       -1.55284006      -1.17008150      -0.54497121
C       -0.42443639      -0.29715535      -1.09409810
C        0.93696440      -0.66743752      -0.48358454
C        1.05957720      -0.37224691       0.97361730
H        1.75046988      -0.98362967       1.54889460
C        0.48818495       0.70352569       1.55185248
O       -0.29197575       1.36363467       2.12395950
C        2.14038700       2.00711855       1.13658741
H       -3.02327847       0.28054620      -1.38438049
H       -1.57014935      -1.12856252       0.56771482
H       -1.36618152      -2.24204388      -0.76870065
H       -0.36747235      -0.41014420      -2.19603051
H       -0.64259941       0.77392824      -0.91273200
H        1.13510648      -1.74963452      -0.64617868
H        1.74329415      -0.13063182      -1.03288600
H        2.99147932       1.37412947       1.05625548
H        1.73429675       2.41217294       0.24030538
H        2.00744040       2.55274084       2.04240498
