22
Properties=species:S:1:pos:R:3 energy=-13591.338045902012 pbc="F F F"
C        0.73942449       0.97296569       0.90225440
C       -0.32302047       1.60368433      -0.01247566
C       -0.47842903       0.92913803      -1.36041433
C       -0.41432955      -0.48659346      -1.48158975
C        1.24101960      -0.96245249       2.45932060
C        0.16976783      -0.14856663       1.77139990
H        1.58124324       0.58845930       0.27822061
H        1.18201179       1.75679562       1.54652256
H       -1.30655359       1.61836184       0.50072685
H       -0.06198320       2.66923845      -0.18676871
H       -1.22661340       1.42517060      -1.97923948
H        0.87458223       1.03394169      -1.85717989
C       -1.46587369      -1.51333912      -1.54142090
H        2.25939776      -0.54331362       2.45668283
H       -0.51482621       0.26439981       2.54311809
H       -0.47249059      -0.82672808       1.17335544
H       -2.14222725      -1.34185092      -2.39902455
H       -2.10261255      -1.48746456      -0.63870289
H       -1.07394866      -2.54016611      -1.64043565
O        0.98839176      -2.02132499       2.99115051
O        1.73609451       0.00380237      -1.79546168
O        0.81097497      -0.99415775      -1.73003830
