9
Properties=species:S:1:pos:R:3 energy=-724.6500662111376 pbc="F F F"
C       -6.40215500       1.91222100      -1.30283600
C       -6.60457700       1.16323500      -0.00909900
H       -6.97357300       1.45052800      -2.10913400
H       -5.33739900       1.91505500      -1.56151300
H       -6.71944500       2.95338900      -1.17661800
C       -7.36951100       0.09958800       0.11250900
H       -7.70438100      -0.61679900       0.84249500
O       -5.85657600       1.77789000       1.01991900
H       -5.99572400       1.27794100       1.86889400
9
Properties=species:S:1:pos:R:3 energy=-724.6934429078117 pbc="F F F"
C       -6.41135613       1.90903604      -1.29593096
C       -6.60537401       1.15964913      -0.00250399
H       -6.92649483       1.46604990      -2.13567835
H       -5.33656164       1.92768766      -1.54786255
H       -6.75535614       2.94507971      -1.18143159
C       -7.37340195       0.09854332       0.12962454
H       -7.72991220      -0.61939161       0.82119328
O       -5.86681041       1.78143012       1.03131921
H       -5.95807370       1.26496374       1.86588739
9
Properties=species:S:1:pos:R:3 energy=-724.7024400830154 pbc="F F F"
C       -6.42070969       1.90633584      -1.28816883
C       -6.60597939       1.15630964       0.00447772
H       -6.87828452       1.48263734      -2.16153989
H       -5.33698931       1.93925501      -1.53581831
H       -6.79118342       2.93441768      -1.18574028
C       -7.37775949       0.09842225       0.14545044
H       -7.75498123      -0.62132223       0.80014716
O       -5.87674775       1.78403367       1.04329721
H       -5.92070619       1.25295880       1.86251178
9
Properties=species:S:1:pos:R:3 energy=-724.6812967816815 pbc="F F F"
C       -6.43015732       1.90410310      -1.27960719
C       -6.60639934       1.15321679       0.01180962
H       -6.82903927       1.50023367      -2.18664888
H       -5.33865186       1.94979406      -1.52533924
H       -6.82690983       2.92146693      -1.18955999
C       -7.38256200       0.09919513       0.16000750
H       -7.77957701      -0.62259978       0.77937804
O       -5.88638758       1.78572479       1.05580343
H       -5.88365678       1.24191332       1.85877372
9
Properties=species:S:1:pos:R:3 energy=-724.6333214443247 pbc="F F F"
C       -6.43964066       1.90232056      -1.27030362
C       -6.60664006       1.15037084       0.01945518
H       -6.77885628       1.51878221      -2.21093557
H       -5.34151916       1.95934179      -1.51638430
H       -6.86251834       2.90629142      -1.19290662
C       -7.38778786       0.10083230       0.17331652
H       -7.80368844      -0.62323321       0.75890731
O       -5.89572945       1.78652761       1.06878831
H       -5.84696074       1.23181448       1.85467978
9
Properties=species:S:1:pos:R:3 energy=-724.5607779538283 pbc="F F F"
C       -6.44910135       1.90097094      -1.26031568
C       -6.60670775       1.14777207       0.02737790
H       -6.72783272       1.53822631      -2.23433022
H       -5.34556110       1.96793519      -1.50891243
H       -6.89799192       2.88895517      -1.19579609
C       -7.39341545       0.10330410       0.18539831
H       -7.82730443      -0.62323145       0.73875638
O       -5.90477291       1.78646627       1.08220229
H       -5.81065337       1.22264941       1.85023654
9
Properties=species:S:1:pos:R:3 energy=-724.4649103016827 pbc="F F F"
C       -6.45848102       1.90003696      -1.24970096
C       -6.60660860       1.14542073       0.03554124
H       -6.67606581       1.55850929      -2.25676307
H       -5.35074754       1.97561126      -1.50288259
H       -6.93331353       2.86952215      -1.19824430
C       -7.39942317       0.10658086       0.19627366
H       -7.85041390      -0.62260344       0.71894664
O       -5.91351750       1.78556490       1.09599581
H       -5.77476993       1.21440528       1.84545057
9
Properties=species:S:1:pos:R:3 energy=-724.3461199547219 pbc="F F F"
C       -6.46772132       1.89950136      -1.23851704
C       -6.60634881       1.14331709       0.04390870
H       -6.62365273       1.57957449      -2.27816437
H       -5.35704834       1.98240699      -1.49825373
H       -6.96846616       2.84805636      -1.20026717
C       -7.40578938       0.11063294       0.20596339
H       -7.87300576      -0.62135811       0.69949950
O       -5.92196278       1.78384763       1.11011929
H       -5.73934573       1.20706924       1.84032842
9
Properties=species:S:1:pos:R:3 energy=-724.2042797893606 pbc="F F F"
C       -6.47676388       1.89934685      -1.22682147
C       -6.60593458       1.14146142       0.05244376
H       -6.57069068       1.60136525      -2.29846439
H       -5.36443337       1.98835937      -1.49498480
H       -7.00343277       2.82462180      -1.20188060
C       -7.41249247       0.11543066       0.21448830
H       -7.89506892      -0.61950440       0.68043635
O       -5.93010829       1.78133860       1.12452318
H       -5.70441605       1.20062845       1.83487668
9
Properties=species:S:1:pos:R:3 energy=-724.0391413667845 pbc="F F F"
C       -6.48555034       1.89955615      -1.21467185
C       -6.60537210       1.13985398       0.06110990
H       -6.51727685       1.62382491      -2.31759337
H       -5.37287252       1.99350540      -1.49303475
H       -7.03819633       2.79928245      -1.20310052
C       -7.41951083       0.12094437       0.22186919
H       -7.91659229      -0.61705124       0.66177859
O       -5.93795358       1.77806195       1.13915791
H       -5.67001616       1.19507005       1.82910190
9
Properties=species:S:1:pos:R:3 energy=-723.8507731335495 pbc="F F F"
C       -6.49402233       1.90011200      -1.20212574
C       -6.60466757       1.13849503       0.06987059
H       -6.46350843       1.64689678      -2.33548156
H       -5.38233564       1.99788206      -1.49236254
H       -7.07273983       2.77210230      -1.20394282
C       -7.42682284       0.12714440       0.22812687
H       -7.93756478      -0.61400757       0.64354763
O       -5.94549821       1.77404180       1.15397392
H       -5.63618136       1.19038120       1.82301065
9
Properties=species:S:1:pos:R:3 energy=-723.6399603036826 pbc="F F F"
C       -6.50212151       1.90099711      -1.18924072
C       -6.60382720       1.13738484       0.07868933
H       -6.40948263       1.67052422      -2.35205922
H       -5.39279260       2.00152635      -1.49292712
H       -7.10704623       2.74314535      -1.20442342
C       -7.43440688       0.13400110       0.23328213
H       -7.95797530      -0.61038233       0.62576486
O       -5.95274172       1.76930229       1.16892164
H       -5.60294694       1.18654906       1.81660952
9
Properties=species:S:1:pos:R:3 energy=-723.4085021518596 pbc="F F F"
C       -6.50978950       1.90219421      -1.17607436
C       -6.60285717       1.13652367       0.08752959
H       -6.35529662       1.69465056      -2.36725661
H       -5.40421328       2.00447526      -1.49468744
H       -7.14109850       2.71247559      -1.20455822
C       -7.44224133       0.14148481       0.23735579
H       -7.97781277      -0.60618445       0.60845168
O       -5.95968366       1.76386756       1.18395152
H       -5.57034817       1.18356078       1.80990505
9
Properties=species:S:1:pos:R:3 energy=-723.1593563454635 pbc="F F F"
C       -6.51696795       1.90368603      -1.16268425
C       -6.60176368       1.13591179       0.09635486
H       -6.30104761       1.71921912      -2.38100396
H       -5.41656755       2.00676578      -1.49760246
H       -7.17487962       2.68015701      -1.20436315
C       -7.45030458       0.14956587       0.24036865
H       -7.99706609      -0.60142287       0.59162950
O       -5.96632358       1.75776174       1.19901398
H       -5.53842035       1.18140352       1.80290382
9
Properties=species:S:1:pos:R:3 energy=-722.8965979596076 pbc="F F F"
C       -6.52359848       1.90545529      -1.14912794
C       -6.60055293       1.13554946       0.10512861
H       -6.24683279       1.74417326      -2.39323155
H       -5.42982527       2.00843492      -1.50163112
H       -7.20837255       2.64625360      -1.20385411
C       -7.45857501       0.15821461       0.24234152
H       -8.01572418      -0.59610652       0.57531970
O       -5.97266103       1.75100897       1.21405947
H       -5.50719875       1.18006443       1.79561241
9
Properties=species:S:1:pos:R:3 energy=-722.6251798133277 pbc="F F F"
C       -6.52962275       1.90748471      -1.13546303
C       -6.59923112       1.13543694       0.11381434
H       -6.19274935       1.76945629      -2.40386961
H       -5.44395631       2.00951965      -1.50673237
H       -7.24156027       2.61082935      -1.20304700
C       -7.46703101       0.16740137       0.24329519
H       -8.03377594      -0.59024435       0.55954370
O       -5.97869557       1.74363337       1.22903843
H       -5.47671867       1.17953066       1.78803737
9
Properties=species:S:1:pos:R:3 energy=-722.3504993695184 pbc="F F F"
C       -6.53498239       1.90975702      -1.12174708
C       -6.59780445       1.13557451       0.12237552
H       -6.13889449       1.79501156      -2.41284840
H       -5.45893055       2.01005696      -1.51286518
H       -7.27442576       2.57394826      -1.20195775
C       -7.47565094       0.17709650       0.24325047
H       -8.05121030      -0.58384528       0.54432288
O       -5.98442673       1.73565909       1.24390128
H       -5.44701539       1.17978937       1.78018527
9
Properties=species:S:1:pos:R:3 energy=-722.0777990348129 pbc="F F F"
C       -6.53961903       1.91225494      -1.10803767
C       -6.59627911       1.13596242       0.13077563
H       -6.08536540       1.82078240      -2.42009817
H       -5.47471785       2.01008387      -1.51998850
H       -7.30695198       2.53567431      -1.20060225
C       -7.48441321       0.18727033       0.24222816
H       -8.06801615      -0.57691825       0.52967866
O       -5.98985407       1.72711026       1.25859846
H       -5.41812420       1.18082772       1.77206269
9
Properties=species:S:1:pos:R:3 energy=-721.8114589778619 pbc="F F F"
C       -6.54347432       1.91496120      -1.09439237
C       -6.59466129       1.13660094       0.13897816
H       -6.03225928       1.84671214      -2.42554919
H       -5.49128808       2.00963735      -1.52806126
H       -7.33912191       2.49607150      -1.19899643
C       -7.49329619       0.19789321       0.24024907
H       -8.08418242      -0.56947220       0.51563242
O       -5.99497714       1.71801100       1.27308041
H       -5.39008037       1.18263285       1.76367619
9
Properties=species:S:1:pos:R:3 energy=-721.5542947615521 pbc="F F F"
C       -6.54648989       1.91785852      -1.08086877
C       -6.59295721       1.13749034       0.14694659
H       -5.97967331       1.87274413      -2.42913169
H       -5.50861112       2.00875439      -1.53704244
H       -7.37091851       2.45520382      -1.19715619
C       -7.50227826       0.20893547       0.23733401
H       -8.09969800      -0.56151606       0.50220557
O       -5.99979549       1.70838547       1.28729757
H       -5.36291920       1.18519192       1.75503235
9
Properties=species:S:1:pos:R:3 energy=-721.307057191857 pbc="F F F"
C       -6.54860739       1.92092962      -1.06752442
C       -6.59117305       1.13863087       0.15464440
H       -5.92770470       1.89882169      -2.43077593
H       -5.52665683       2.00747200      -1.54689097
H       -7.40232477       2.41313526      -1.19509744
C       -7.51133780       0.22036746       0.23350377
H       -8.11455183      -0.55305877       0.48941951
O       -6.00430867       1.69825778       1.30120037
H       -5.33667597       1.18849209       1.74613772
9
Properties=species:S:1:pos:R:3 energy=-721.0684745128743 pbc="F F F"
C       -6.54976844       1.92415723      -1.05441692
C       -6.58931500       1.14002281       0.16203507
H       -5.87645063       1.92488816      -2.43041216
H       -5.54539508       2.00582716      -1.55756582
H       -7.43332365       2.36992981      -1.19283610
C       -7.52045321       0.23215950       0.22877916
H       -8.12873279      -0.54410927       0.47729564
O       -6.00851622       1.68765208       1.31473926
H       -5.31138597       1.19252052       1.73699887
9
Properties=species:S:1:pos:R:3 energy=-720.8363916796205 pbc="F F F"
C       -6.54991469       1.92752408      -1.04160383
C       -6.58738928       1.14166642       0.16908209
H       -5.82600831       1.95088688      -2.42797064
H       -5.56479574       2.00385686      -1.56902594
H       -7.46389813       2.32565147      -1.19038806
C       -7.52960286       0.24428195       0.22318099
H       -8.14222981      -0.53467649       0.46585535
O       -6.01241769       1.67659250       1.32786466
H       -5.28708449       1.19726434       1.72762239
9
Properties=species:S:1:pos:R:3 energy=-720.6094807292792 pbc="F F F"
C       -6.54898779       1.93101288      -1.02914272
C       -6.58540207       1.14356195       0.17574893
H       -5.77647491       1.97676117      -2.42338162
H       -5.58482868       2.00159810      -1.58123027
H       -7.49403117       2.28036422      -1.18776926
C       -7.53876513       0.25670514       0.21673006
H       -8.15503180      -0.52476937       0.45512005
O       -6.01601265       1.66510317       1.34052701
H       -5.26380680       1.20271073       1.71801482
9
Properties=species:S:1:pos:R:3 energy=-720.3031130373523 pbc="F F F"
C       -6.54692935       1.93460637      -1.01709118
C       -6.58335958       1.14570969       0.18199908
H       -5.72794765       2.00245438      -2.41657536
H       -5.60546377       1.99908787      -1.59413776
H       -7.52370575       2.23413206      -1.18499558
C       -7.54791841       0.26939942       0.20944717
H       -8.16712767      -0.51439684       0.44511114
O       -6.01930062       1.65320823       1.35267675
H       -5.24158819       1.20884683       1.70818275
9
Properties=species:S:1:pos:R:3 energy=-720.0346906725766 pbc="F F F"
C       -6.54368103       1.93828726      -1.00550678
C       -6.58126799       1.14810988       0.18779602
H       -5.68052370       2.02790985      -2.40748209
H       -5.62667089       1.99636316      -1.60770739
H       -7.55290485       2.18701897      -1.18208295
C       -7.55704109       0.28233511       0.20135312
H       -8.17850633      -0.50356784       0.43585001
O       -6.02228117       1.64093181       1.36426431
H       -5.22046395       1.21565980       1.69813274
9
Properties=species:S:1:pos:R:3 energy=-719.7732728232902 pbc="F F F"
C       -6.53918447       1.94203828      -0.99444709
C       -6.57913351       1.15076280       0.19310324
H       -5.63430027       2.05307089      -2.39603209
H       -5.64841989       1.99346096      -1.62189808
H       -7.58161143       2.13908896      -1.17904727
C       -7.56611153       0.29548256       0.19246873
H       -8.18915669      -0.49229130       0.42735807
O       -6.02495385       1.62829805       1.37524014
H       -5.20046937       1.22313680       1.68787136
9
Properties=species:S:1:pos:R:3 energy=-719.4921745305378 pbc="F F F"
C       -6.53338129       1.94584216      -0.98396969
C       -6.57696234       1.15366872       0.19788421
H       -5.58937455       2.07788086      -2.38215559
H       -5.67068065       1.99041827      -1.63666880
H       -7.60980847       2.09040600      -1.17590446
C       -7.57510813       0.30881212       0.18281479
H       -8.19906766      -0.48057617       0.41965671
O       -6.02731820       1.61533108       1.38555467
H       -5.18163973       1.23126497       1.67740517
9
Properties=species:S:1:pos:R:3 energy=-719.2015749055805 pbc="F F F"
C       -6.52621314       1.94968161      -0.97413215
C       -6.57476066       1.15682788       0.20210242
H       -5.54584373       2.10228308      -2.36578285
H       -5.69342304       1.98727208      -1.65197850
H       -7.63747893       2.04103410      -1.17267043
C       -7.58400927       0.32229411       0.17241211
H       -8.20822815      -0.46843137       0.41276733
O       -6.02937376       1.60205503       1.39515833
H       -5.16401031       1.24003147       1.66674075
9
Properties=species:S:1:pos:R:3 energy=-718.9105680978107 pbc="F F F"
C       -6.51762166       1.95353937      -0.96499205
C       -6.57253469       1.16024057       0.20572135
H       -5.50380501       2.12622089      -2.34684413
H       -5.71661693       1.98405938      -1.66778613
H       -7.66460580       1.99103725      -1.16936108
C       -7.59279334       0.33589889       0.16128149
H       -8.21662708      -0.45586585       0.40671134
O       -6.03112011       1.58849404       1.40400156
H       -5.14761640       1.24942346       1.65588466
9
Properties=species:S:1:pos:R:3 energy=-718.6259999823329 pbc="F F F"
C       -6.50755134       1.95739815      -0.95660573
C       -6.57029061       1.16390651       0.20870497
H       -5.46335336       2.14963847      -2.32527280
H       -5.74023148       1.98081712      -1.68404999
H       -7.69117234       1.94047978      -1.16599277
C       -7.60143883       0.34959645       0.14944457
H       -8.22425389      -0.44288868       0.40150946
O       -6.03255708       1.57467236       1.41203569
H       -5.13249207       1.25942783       1.64484361
9
Properties=species:S:1:pos:R:3 energy=-718.353750177874 pbc="F F F"
C       -6.49601234       1.96124029      -0.94900099
C       -6.56803463       1.16781345       0.21102872
H       -5.42453294       2.17249944      -2.30107410
H       -5.76421964       1.97758124      -1.70071331
H       -7.71716882       1.88943410      -1.16259203
C       -7.60992708       0.36334924       0.13694195
H       -8.23111032      -0.42951216       0.39716703
O       -6.03369181       1.56061676       1.41923239
H       -5.11864342       1.27002564       1.63362733
9
Properties=species:S:1:pos:R:3 energy=-718.098103826081 pbc="F F F"
C       -6.48308047       1.96504783      -0.94217715
C       -6.56577299       1.17193707       0.21267947
H       -5.38733705       2.19478686      -2.27432510
H       -5.78851813       1.97438665      -1.71770424
H       -7.74259249       1.83798067      -1.15919554
C       -7.61824226       0.37711211       0.12383321
H       -8.23721043      -0.41575184       0.39367398
O       -6.03453863       1.54635656       1.42558374
H       -5.10604855       1.28119208       1.62224863
9
Properties=species:S:1:pos:R:3 energy=-717.8607292291208 pbc="F F F"
C       -6.46883443       1.96880274      -0.93613228
C       -6.56351189       1.17625257       0.21364458
H       -5.35175678       2.21648464      -2.24510602
H       -5.81306295       1.97126824      -1.73495028
H       -7.76744089       1.78620031      -1.15584046
C       -7.62636864       0.39083959       0.11017878
H       -8.24256880      -0.40162339       0.39101959
O       -6.03511224       1.53192118       1.43108267
H       -5.09468438       1.29290210       1.61072041
9
Properties=species:S:1:pos:R:3 energy=-717.6426696370511 pbc="F F F"
C       -6.45335288       1.97248704      -0.93086443
C       -6.56125756       1.18073513       0.21391141
H       -5.31778322       2.23757669      -2.21349706
H       -5.83779013       1.96826088      -1.75237894
H       -7.79171158       1.73417384      -1.15256393
C       -7.63429053       0.40448622       0.09603906
H       -8.24720000      -0.38714249       0.38919313
O       -6.03542730       1.51734005       1.43572213
H       -5.08452780       1.30513064       1.59905561
9
Properties=species:S:1:pos:R:3 energy=-717.4505215130577 pbc="F F F"
C       -6.43671450       1.97608271      -0.92637167
C       -6.55901623       1.18535994       0.21346735
H       -5.28540747       2.25804692      -2.17957844
H       -5.86263569       1.96539946      -1.76991772
H       -7.81540210       1.68198205      -1.14940307
C       -7.64199219       0.41800650       0.08147447
H       -8.25111862      -0.37232482       0.38818386
O       -6.03549849       1.50264260       1.43949506
H       -5.07555571       1.31785264       1.58726715
9
Properties=species:S:1:pos:R:3 energy=-717.3109138174996 pbc="F F F"
C       -6.41899797       1.97957175      -0.92265206
C       -6.55679411       1.19010217       0.21229975
H       -5.25462063       2.27787922      -2.14343037
H       -5.88753563       1.96271885      -1.78749411
H       -7.83851001       1.62970578      -1.14639504
C       -7.64945793       0.43135499       0.06654541
H       -8.25433924      -0.35718606       0.38798106
O       -6.03534047       1.48785825       1.44239441
H       -5.06774501       1.33104304       1.57536794
9
Properties=species:S:1:pos:R:3 energy=-717.3141340919854 pbc="F F F"
C       -6.40028196       1.98293616      -0.91970368
C       -6.55459742       1.19493702       0.21039599
H       -5.22541377       2.29705751      -2.10513305
H       -5.91242598       1.96025393      -1.80503563
H       -7.86103286       1.57742584      -1.14357697
C       -7.65667201       0.44448620       0.05131231
H       -8.25687645      -0.34174188       0.38857399
O       -6.03496792       1.47301643       1.44441311
H       -5.06107261       1.34467679       1.56337092
9
Properties=species:S:1:pos:R:3 energy=-717.5119909999612 pbc="F F F"
C       -6.38064516       1.98615794      -0.91752458
C       -6.55243240       1.19983967       0.20774343
H       -5.19777801       2.31556569      -2.06476670
H       -5.93724274       1.95803958      -1.82246977
H       -7.88296820       1.52522303      -1.14098600
C       -7.66361874       0.45735466       0.03583558
H       -8.25874482      -0.32600797       0.38995193
O       -6.03439551       1.45814656       1.44554411
H       -5.05551541       1.35872883       1.55128900
9
Properties=species:S:1:pos:R:3 energy=-718.1950907909485 pbc="F F F"
C       -6.36016624       1.98921909      -0.91611283
C       -6.55030525       1.20478529       0.20432945
H       -5.17170442       2.33338768      -2.02241152
H       -5.96192194       1.95611068      -1.83972404
H       -7.90431358       1.47317817      -1.13865928
C       -7.67028239       0.46991491       0.02017562
H       -8.25995894      -0.30999999       0.39210414
O       -6.03363793       1.44327807       1.44578036
H       -5.05105030       1.37317411       1.53913510
9
Properties=species:S:1:pos:R:3 energy=-718.6072725257573 pbc="F F F"
C       -6.33892387       1.99210160      -0.91546649
C       -6.54822221       1.20974908       0.20014140
H       -5.14718412       2.35050737      -1.97814773
H       -5.98639959       1.95450210      -1.85672594
H       -7.92506654       1.42137208      -1.13663394
C       -7.67664726       0.48212147       0.00439286
H       -8.26053338      -0.29373364       0.39501989
O       -6.03270983       1.42844038       1.44511479
H       -5.04765419       1.38798757       1.52692215
9
Properties=species:S:1:pos:R:3 energy=-719.087358202458 pbc="F F F"
C       -6.31699674       1.99478746      -0.91558363
C       -6.54618949       1.21470623       0.19516666
H       -5.12420818       2.36690868      -1.93205553
H       -6.01061171       1.95324873      -1.87340296
H       -7.94522465       1.36988557      -1.13494712
C       -7.68269762       0.49392886      -0.01145230
H       -8.26048274      -0.27722459       0.39868846
O       -6.03162590       1.41366292       1.44354035
H       -5.04530398       1.40314414       1.51466308
9
Properties=species:S:1:pos:R:3 energy=-719.6112518119924 pbc="F F F"
C       -6.29446352       1.99725868      -0.91646231
C       -6.54421331       1.21963190       0.18939259
H       -5.10276770       2.38257551      -1.88421513
H       -6.03449430       1.95238544      -1.88968262
H       -7.96478544       1.31879946      -1.13363597
C       -7.68841776       0.50529163      -0.02729945
H       -8.25982158      -0.26048852       0.40309911
O       -6.03040080       1.39897512       1.44104998
H       -5.04397657       1.41861878       1.50237079
9
Properties=species:S:1:pos:R:3 energy=-720.167351808985 pbc="F F F"
C       -6.27140289       1.99949725      -0.91810060
C       -6.54229991       1.22450129       0.18280657
H       -5.08285378       2.39749177      -1.83470675
H       -6.05798339       1.95194712      -1.90549241
H       -7.98374648       1.26819455      -1.13273762
C       -7.69379198       0.51616429      -0.04308816
H       -8.25856451      -0.24354110       0.40824111
O       -6.02904921       1.38440639       1.43763664
H       -5.04364886       1.43438643       1.49005822
9
Properties=species:S:1:pos:R:3 energy=-720.7459273517441 pbc="F F F"
C       -6.24789353       2.00148517      -0.92049656
C       -6.54045549       1.22928959       0.17539596
H       -5.06445751       2.41164137      -1.78361058
H       -6.08101499       1.95196864      -1.92075983
H       -8.00210530       1.21815167      -1.13228922
C       -7.69880454       0.52650138      -0.05875803
H       -8.25672608      -0.22639801       0.41410373
O       -6.02758581       1.36998617       1.43329325
H       -5.04429775       1.45042203       1.47773829
9
Properties=species:S:1:pos:R:3 energy=-721.330494732859 pbc="F F F"
C       -6.22401410       2.00320444      -0.92364825
C       -6.53868628       1.23397197       0.16714813
H       -5.04756998       2.42500821      -1.73100685
H       -6.10352512       1.95248488      -1.93541239
H       -8.01985947       1.16875163      -1.13232790
C       -7.70343975       0.53625742      -0.07424864
H       -8.25432089      -0.20907494       0.42067624
O       -6.02602525       1.35574389       1.42801276
H       -5.04590015       1.46670052       1.46542391
9
Properties=species:S:1:pos:R:3 energy=-721.9021118335224 pbc="F F F"
C       -6.19984330       2.00463704      -0.92755375
C       -6.53699851       1.23852362       0.15805045
H       -5.03218228       2.43757620      -1.67697577
H       -6.12544979       1.95353071      -1.94937759
H       -8.03700653       1.12007524      -1.13289080
C       -7.70768188       0.54538694      -0.08949959
H       -8.25136353      -0.19158755       0.42794791
O       -6.02438223       1.34170896       1.42178812
H       -5.04843295       1.48319685       1.45312802
9
Properties=species:S:1:pos:R:3 energy=-722.4480962540179 pbc="F F F"
C       -6.17545979       2.00576499      -0.93221111
C       -6.53539839       1.24291972       0.14809028
H       -5.01828552       2.44932924      -1.62159753
H       -6.14672502       1.95514102      -1.96258294
H       -8.05354403       1.07220331      -1.13401507
C       -7.71151523       0.55384448      -0.10445045
H       -8.24786856      -0.17395154       0.43590801
O       -6.02267141       1.32791081       1.41461227
H       -5.05187305       1.49988595       1.44086353
9
Properties=species:S:1:pos:R:3 energy=-722.9608173602967 pbc="F F F"
C       -6.15094226       2.00657028      -0.93761840
C       -6.53389215       1.24713547       0.13725500
H       -5.00587078       2.46025125      -1.56495235
H       -6.16728682       1.95735069      -1.97495592
H       -8.06946953       1.02521667      -1.13573784
C       -7.71492407       0.56158455      -0.11904083
H       -8.24385058      -0.15618257       0.44454581
O       -6.02090747       1.31437888       1.40647816
H       -5.05619735       1.51674278       1.42864337
9
Properties=species:S:1:pos:R:3 energy=-723.4351878947292 pbc="F F F"
C       -6.12636938       2.00703490      -0.94377369
C       -6.53248600       1.25114603       0.12553197
H       -4.99492916       2.47032614      -1.50712044
H       -6.18707121       1.96019460      -1.98642405
H       -8.08478057       0.97919612      -1.13809626
C       -7.71789270       0.56856169      -0.13321029
H       -8.23932416      -0.13829632       0.45385058
O       -6.01910507       1.30114257       1.39737872
H       -5.06138277       1.53374228       1.41648046
9
Properties=species:S:1:pos:R:3 energy=-723.8675676525523 pbc="F F F"
C       -6.10181983       2.00714084      -0.95067503
C       -6.53118618       1.25492661       0.11290856
H       -4.98545174       2.47953780      -1.44818202
H       -6.20601420       1.96370761      -1.99691482
H       -8.09947470       0.93422248      -1.14112747
C       -7.72040539       0.57473043      -0.14689843
H       -8.23430388      -0.12030848       0.46381159
O       -6.01727889       1.28823133       1.38730690
H       -5.06740619       1.55085939       1.40438772
9
Properties=species:S:1:pos:R:3 energy=-724.2552966760176 pbc="F F F"
C       -6.07737228       2.00687012      -0.95832050
C       -6.52999890       1.25845237       0.09937214
H       -4.97742963       2.48787014      -1.38821728
H       -6.22405181       1.96792462      -2.00635574
H       -8.11354948       0.89037656      -1.14486859
C       -7.72244645       0.58004530      -0.16004484
H       -8.22880433      -0.10223472       0.47441811
O       -6.01544361       1.27567457       1.37625564
H       -5.07424451       1.56806904       1.39237807
9
Properties=species:S:1:pos:R:3 energy=-724.5964841532611 pbc="F F F"
C       -6.05310541       2.00620472      -0.96670815
C       -6.52893038       1.26169851       0.08491007
H       -4.97085392       2.49530708      -1.32730644
H       -6.24112006       1.97288050      -2.01467432
H       -8.12700245       0.84773918      -1.14935679
C       -7.72400014       0.58446082      -0.17258911
H       -8.22284010      -0.08409072       0.48565940
O       -6.01361390       1.26350172       1.36421789
H       -5.08187465       1.58534620       1.38046444
9
Properties=species:S:1:pos:R:3 energy=-724.8899293586786 pbc="F F F"
C       -6.02909790       2.00512664      -0.97583606
C       -6.52798685       1.26464021       0.06950973
H       -4.96571570       2.50183251      -1.26552971
H       -6.25715495       1.97861013      -2.02179804
H       -8.13983117       0.80639115      -1.15462919
C       -7.72505076       0.58793152      -0.18447081
H       -8.21642575      -0.06589216       0.49752475
O       -6.01180442       1.25174220       1.35118658
H       -5.09027350       1.60266579       1.36865974
9
Properties=species:S:1:pos:R:3 energy=-725.1351132286658 pbc="F F F"
C       -6.00542843       2.00361788      -0.98570228
C       -6.52717453       1.26725265       0.05315848
H       -4.96200606       2.50743036      -1.20296729
H       -6.27209251       1.98514838      -2.02765442
H       -8.15203318       0.76641329      -1.16072293
C       -7.72558259       0.59041194      -0.19562955
H       -8.20957588      -0.04765471       0.51000340
O       -6.01002986       1.24042545       1.33715467
H       -5.09941795       1.62000276       1.35697691
9
Properties=species:S:1:pos:R:3 energy=-725.3322040956457 pbc="F F F"
C       -5.98217568       2.00166044      -0.99630488
C       -6.52649964       1.26951102       0.03584370
H       -4.95971610       2.51208451      -1.13969941
H       -6.28586876       1.99253015      -2.03217095
H       -8.16360604       0.72788640      -1.16767517
C       -7.72557992       0.59185659      -0.20600490
H       -8.20230506      -0.02939406       0.52308465
O       -6.00830488       1.22958089       1.32211510
H       -5.10928492       1.63733206       1.34542886
9
Properties=species:S:1:pos:R:3 energy=-725.4820144982027 pbc="F F F"
C       -5.95941831       1.99923631      -1.00764193
C       -6.52596840       1.27139050       0.01755274
H       -4.95883691       2.51577889      -1.07580626
H       -6.29841969       2.00079029      -2.03527515
H       -8.17454730       0.69089131      -1.17552302
C       -7.72502703       0.59222001      -0.21553645
H       -8.19462788      -0.01112588       0.53675775
O       -6.00664417       1.21923794       1.30606081
H       -5.11985130       1.65462863       1.33402851
9
Properties=species:S:1:pos:R:3 energy=-725.5858470940013 pbc="F F F"
C       -5.93723501       1.99632749      -1.01971149
C       -6.52558703       1.27286627      -0.00172702
H       -4.95935959       2.51849739      -1.01136805
H       -6.30968135       2.00996370      -2.03689450
H       -8.18485450       0.65550883      -1.18430365
C       -7.72390821       0.59145673      -0.22416379
H       -8.18655892       0.00713415       0.55101198
O       -6.00506239       1.20942603       1.28898473
H       -5.13109400       1.67186741       1.32278879
9
Properties=species:S:1:pos:R:3 energy=-725.6451861643086 pbc="F F F"
C       -5.91570446       1.99291597      -1.03251163
C       -6.52536176       1.27391353      -0.02200822
H       -4.96127522       2.52022393      -0.94646501
H       -6.31958972       2.02008526      -2.03695651
H       -8.19452520       0.62181977      -1.19405418
C       -7.72220775       0.58952128      -0.23182651
H       -8.17811276       0.02537035       0.56583660
O       -6.00357421       1.20017458       1.27087983
H       -5.14298991       1.68902334       1.31172263
9
Properties=species:S:1:pos:R:3 energy=-725.6612294337247 pbc="F F F"
C       -5.89490532       1.98898376      -1.04604040
C       -6.52529880       1.27450745      -0.04330348
H       -4.96457491       2.52094240      -0.88117732
H       -6.32808084       2.03118983      -2.03538869
H       -8.20355695       0.58990495      -1.20481175
C       -7.71990994       0.58636818      -0.23846419
H       -8.16930398       0.04356704       0.58122088
O       -6.00219431       1.19151302       1.25173903
H       -5.15551594       1.70607137       1.30084293
