9
Properties=species:S:1:pos:R:3 energy=-717.3109138174996 pbc="F F F"
C       -6.41899797       1.97957175      -0.92265206
C       -6.55679411       1.19010217       0.21229975
H       -5.25462063       2.27787922      -2.14343037
H       -5.88753563       1.96271885      -1.78749411
H       -7.83851001       1.62970578      -1.14639504
C       -7.64945793       0.43135499       0.06654541
H       -8.25433924      -0.35718606       0.38798106
O       -6.03534047       1.48785825       1.44239441
H       -5.06774501       1.33104304       1.57536794
