20
Properties=species:S:1:pos:R:3 energy=-11531.812770964563 pbc="F F F"
O        0.71174900       0.69138500       0.12367400
C        1.89124500       0.50017300      -0.06704700
C        2.78018200       1.57137900      -0.67232900
C        3.91425200       1.98378600       0.26914000
C        4.84915300       0.82447300       0.66205100
C        5.48198800       0.20261900      -0.51674900
H        6.19973300       0.76320100      -1.09412700
C        5.10659600      -1.15882000      -0.92852600
O        4.10091400      -1.70552600      -0.50937700
C        6.02632200      -1.83512400      -1.90371500
H        2.38649800      -0.45901100       0.17063800
H        3.18623900       1.19751800      -1.63348600
H        2.16880000       2.46156900      -0.93125600
H        4.50249600       2.79259600      -0.20914400
H        3.48655100       2.42600800       1.19273300
H        5.63634600       1.20799700       1.34968800
H        4.28217000       0.06954300       1.25392900
H        6.04985900      -1.31588500      -2.87066200
H        7.05788000      -1.88264400      -1.53129400
H        5.70200300      -2.86935000      -2.10024500
