22
Properties=species:S:1:pos:R:3 energy=-1888.7586959089128 pbc="F F F"
C        5.94697236      -4.64790622       0.94792659
C        6.88241220      -4.44971442      -0.28483729
C        6.56077204      -5.64999008      -1.17362383
C        5.61036125      -5.48621191      -2.20473438
C        4.37160023      -3.16289326       2.51965925
C        5.74739497      -3.56456096       2.05301869
H        4.95343679      -5.02060895       0.58211495
H        6.41311458      -5.48462013       1.53586536
H        6.72865403      -3.47229556      -0.76186542
H        7.92929527      -4.45947494       0.06770254
H        6.81650345      -6.56069404      -0.65563285
H        6.23215255      -7.88738394      -2.39665972
C        5.16410718      -4.20826773      -2.80242234
H        4.45997802      -2.58729602       3.48030125
H        6.09655429      -4.06003578       2.97030581
H        6.33161766      -2.63275007       2.02046755
H        5.08600303      -3.45466266      -2.04859051
H        4.18898071      -4.29125642      -3.28242987
H        5.79891288      -3.81941270      -3.58522078
O        3.32238237      -3.43735456       1.99265449
O        6.85999784      -7.10768896      -2.57272343
O        5.17604029      -6.54504570      -2.81180708
