9
Properties=species:S:1:pos:R:3 energy=-5230.214891783467 pbc="F F F"
C        0.98748600      -0.14150900       0.03384100
C        0.41212100      -1.54769700      -0.13097400
O       -0.45566000      -2.00751800       0.66742500
C        0.89536600      -2.32324700      -1.22592700
H        1.63798200      -1.93572900      -1.91291800
H        0.50829500      -3.32410800      -1.37150300
H        0.52882500       0.32733300       0.90637200
H        0.78208700       0.46624300      -0.85522300
H        2.07421700      -0.18281900       0.17265000
