9
Properties=species:S:1:pos:R:3 energy=-5237.842355438613 pbc="F F F"
C        1.14961600       0.14583300      -0.44057100
H        0.56621100       0.99587600      -0.16180700
H        0.68227100      -0.59649500      -1.05196800
C        2.54099300      -0.01860500      -0.01288100
C        3.07410700       1.10672800       0.84807300
O        4.20770400       1.09954900       1.27148100
H        2.66888500      -0.98594600       0.53376400
H        3.20931200      -0.14437100      -0.90083500
H        2.37479900       1.92889100       1.06635100
