20
Properties=species:S:1:pos:R:3 energy=-11527.085129329309 pbc="F F F"
O       -1.54385584      -0.40195921      -1.77532936
C       -1.56315524      -1.18484102      -0.69928083
C       -2.72764766      -0.75404894       0.05605322
C       -1.38175490      -2.63925834      -0.89174465
C        1.16950901       0.87062218      -1.54843481
C        1.83468286       1.03727358      -0.40501957
H        2.89026643       1.31523564      -0.39216629
C        1.21292414       0.88347085       0.92809121
O        0.26560821       0.14773075       1.16514364
C        1.82741361       1.69422490       2.03338977
H       -0.66108006      -0.82670939       0.04200850
H       -3.42995498      -1.43340103       0.51354298
H       -2.97374877       0.30091212       0.08130021
H       -1.63239597      -3.34371606      -0.13369488
H       -1.00053689      -2.98299617      -1.83077376
H        1.62996284       0.99485075      -2.52166920
H        0.10189619       0.59370887      -1.61800767
H        2.84457117       1.35090493       2.26684750
H        1.89723126       2.75814940       1.76898485
H        1.24006458       1.61984620       2.96075916
