9
Properties=species:S:1:pos:R:3 energy=-722.9809906687001 pbc="F F F"
C       -8.08490404       1.17694491      -0.07156639
C       -6.76724696       1.25979778       0.49313953
H       -8.63559124       0.45922621       0.56602359
H       -7.99989991       0.77983745      -1.09344578
H       -8.60296446       2.17233030      -0.11375742
C       -5.66752259       1.20491321       0.98126014
H       -4.73497743       1.20545914       1.41053748
O       -5.03296671       1.81736831       5.51925934
H       -4.88384665       2.28516269       6.34933950
