9
Properties=species:S:1:pos:R:3 energy=-723.0444745474495 pbc="F F F"
C       -8.09844016       1.15154480      -0.00481052
C       -6.66480673       1.14579908      -0.04031131
H       -8.47943309       0.86513319       0.99118069
H       -8.53675081       0.44738061      -0.73183053
H       -8.51178314       2.14951420      -0.23040014
C       -5.45941392       1.14469947      -0.04684224
H       -4.43031356       1.14663146      -0.03609019
O       -5.50938193       2.25421339       6.79870273
H       -4.71959666       2.05612380       7.34119150
9
Properties=species:S:1:pos:R:3 energy=-723.0439218619879 pbc="F F F"
C       -8.09548662       1.15363725       0.01001687
C       -6.66157916       1.14925009      -0.01849345
H       -8.47782611       0.87265607       1.00756613
H       -8.52981600       0.44371692      -0.71491167
H       -8.50770529       2.15089492      -0.22374360
C       -5.45593206       1.14955303      -0.02117242
H       -4.42541904       1.15235754      -0.00759526
O       -5.52058858       2.24609986       6.72320701
H       -4.73556714       2.04287432       7.28591639
9
Properties=species:S:1:pos:R:3 energy=-723.0420152815453 pbc="F F F"
C       -8.09242962       1.15573049       0.02482449
C       -6.65819169       1.15269245       0.00316283
H       -8.47621677       0.88024730       1.02378325
H       -8.52295863       0.44016137      -0.69782470
H       -8.50364006       2.15208706      -0.21702502
C       -5.45244292       1.15439360       0.00442721
H       -4.42071533       1.15811340       0.02107027
O       -5.53064305       2.23785196       6.64793326
H       -4.75268193       2.02976236       7.23043840
9
Properties=species:S:1:pos:R:3 energy=-723.0396278966335 pbc="F F F"
C       -8.08927584       1.15782402       0.03960996
C       -6.65466419       1.15612652       0.02466528
H       -8.47460418       0.88789995       1.03983779
H       -8.51617156       0.43670870      -0.68058544
H       -8.49958377       2.15310158      -0.21025063
C       -5.44894952       1.15922104       0.02995580
H       -4.41619144       1.16389514       0.04988552
O       -5.53954666       2.22947930       6.57287354
H       -4.77093284       2.01678376       7.17479817
9
Properties=species:S:1:pos:R:3 energy=-723.037355471831 pbc="F F F"
C       -8.08603196       1.15991730       0.05437091
C       -6.65101651       1.15955264       0.04602166
H       -8.47298745       0.89560706       1.05573552
H       -8.50944767       0.43335366      -0.66320970
H       -8.49553275       2.15394941      -0.20342669
C       -5.44545490       1.16403522       0.05541248
H       -4.41183639       1.16969884       0.07882961
O       -5.54730069       2.22099151       6.49801989
H       -4.79031169       2.00393435       7.11903632
9
Properties=species:S:1:pos:R:3 energy=-723.0355585693658 pbc="F F F"
C       -8.08270467       1.16200982       0.06910496
C       -6.64726851       1.16297118       0.06723974
H       -8.47136569       0.90336171       1.07148217
H       -8.50277982       0.43009100      -0.64571330
H       -8.49148334       2.15464149      -0.19655945
C       -5.44196206       1.16883601       0.08079638
H       -4.40763919       1.17552061       0.10788165
O       -5.55390645       2.21239819       6.42336435
H       -4.81081028       1.99120999       7.06319349
9
Properties=species:S:1:pos:R:3 energy=-723.0344041730064 pbc="F F F"
C       -8.07930064       1.16410105       0.08380973
C       -6.64344005       1.16638248       0.08832728
H       -8.46973802       0.91115696       1.08708350
H       -8.49616087       0.42691546      -0.62811204
H       -8.48743186       2.15518878      -0.18965515
C       -5.43847406       1.17362327       0.10610664
H       -4.40358886       1.18135653       0.13702076
O       -5.55936523       2.20370897       6.34889898
H       -4.83242042       1.97860651       7.00731030
9
Properties=species:S:1:pos:R:3 energy=-723.0339072268503 pbc="F F F"
C       -8.07582656       1.16619048       0.09848285
C       -6.63955099       1.16978689       0.10929203
H       -8.46810355       0.91898587       1.10254527
H       -8.48958368       0.42382180      -0.61042176
H       -8.48337465       2.15560220      -0.18272004
C       -5.43499389       1.17839686       0.13134240
H       -4.39967442       1.18720269       0.16622605
O       -5.56367833       2.19493346       6.27461581
H       -4.85513392       1.96611975       6.95142739
9
Properties=species:S:1:pos:R:3 energy=-723.0339632636446 pbc="F F F"
C       -8.07228912       1.16827759       0.11312192
C       -6.63562118       1.17318478       0.13014177
H       -8.46646140       0.92684149       1.11787321
H       -8.48304114       0.42080475      -0.59265825
H       -8.47930804       2.15589272      -0.17576037
C       -5.43152460       1.18315667       0.15650279
H       -4.39588487       1.19305518       0.19547664
O       -5.56684706       2.18608128       6.20050689
H       -4.87894259       1.95374555       6.89558538
9
Properties=species:S:1:pos:R:3 energy=-723.0344201520663 pbc="F F F"
C       -8.06869499       1.17036186       0.12772459
C       -6.63167049       1.17657648       0.15088424
H       -8.46481067       0.93471691       1.13307308
H       -8.47652609       0.41785906      -0.57483733
H       -8.47522836       2.15607126      -0.16878238
C       -5.42806921       1.18790254       0.18158696
H       -4.39220925       1.19891010       0.22475165
O       -5.56887270       2.17716203       6.12656428
H       -4.90383824       1.94147976       6.83982490
9
Properties=species:S:1:pos:R:3 energy=-723.0350724464749 pbc="F F F"
C       -8.06505086       1.17244276       0.14228847
C       -6.62771878       1.17996236       0.17152722
H       -8.46315048       0.94260516       1.14815063
H       -8.47003140       0.41497949      -0.55697482
H       -8.47113194       2.15614877      -0.16179232
C       -5.42463074       1.19263435       0.20659403
H       -4.38863656       1.20476354       0.25403020
O       -5.56975656       2.16818535       6.05278000
H       -4.92981268       1.92931821       6.78418659
9
Properties=species:S:1:pos:R:3 energy=-723.0357211769473 pbc="F F F"
C       -8.06136341       1.17451978       0.15681118
C       -6.62378589       1.18334276       0.19207846
H       -8.46147994       0.95049933       1.16311161
H       -8.46354994       0.41216077      -0.53908654
H       -8.46701512       2.15613620      -0.15479644
C       -5.42121222       1.19735197       0.23152315
H       -4.38515582       1.21061159       0.28329139
O       -5.56949994       2.15916085       5.97914611
H       -4.95685772       1.91725676       6.72871107
9
Properties=species:S:1:pos:R:3 energy=-723.0362021945053 pbc="F F F"
C       -8.05763932       1.17659240       0.17129034
C       -6.61989170       1.18671804       0.21254573
H       -8.45979817       0.95839247       1.17796176
H       -8.45707458       0.40939766      -0.52118829
H       -8.46287422       2.15604449      -0.14780098
C       -5.41781667       1.20205526       0.25637345
H       -4.38175605       1.21645034       0.31251435
O       -5.56810413       2.15009813       5.90565466
H       -4.98496517       1.90529122       6.67343898
9
Properties=species:S:1:pos:R:3 energy=-723.0363975314675 pbc="F F F"
C       -8.05388528       1.17866009       0.18572358
C       -6.61605606       1.19008855       0.23293678
H       -8.45810427       0.96627763       1.19270685
H       -8.45059818       0.40668489      -0.50329589
H       -8.45870558       2.15588458      -0.14081220
C       -5.41444712       1.20674409       0.28114406
H       -4.37842626       1.22227588       0.34167819
O       -5.56557043       2.14100683       5.83229769
H       -5.01412683       1.89341746       6.61841094
9
Properties=species:S:1:pos:R:3 energy=-723.0362901915797 pbc="F F F"
C       -8.05010741       1.18072220       0.20010884
C       -6.61229777       1.19345471       0.25325662
H       -8.45639607       0.97414926       1.20735351
H       -8.44411524       0.40401662      -0.48542210
H       -8.45450569       2.15566720      -0.13383506
C       -5.41110440       1.21141902       0.30584004
H       -4.37515585       1.22808511       0.37076438
O       -5.56191465       2.13189139       5.75908144
H       -5.04432293       1.88163448       6.56364231
9
Properties=species:S:1:pos:R:3 energy=-723.0359245358474 pbc="F F F"
C       -8.04630877       1.18277726       0.21444582
C       -6.60862980       1.19681730       0.27349487
H       -8.45466412       0.98200944       1.22191339
H       -8.43762947       0.40138357      -0.46756247
H       -8.45027197       2.15540197      -0.12686740
C       -5.40777707       1.21608459       0.33049948
H       -4.37193632       1.23387937       0.39976762
O       -5.55723375       2.12272747       5.68609166
H       -5.07546873       1.86995903       6.50900703
9
Properties=species:S:1:pos:R:3 energy=-723.0353852810155 pbc="F F F"
C       -8.04249135       1.18482352       0.22873484
C       -6.60506306       1.20017725       0.29363577
H       -8.45289646       0.98986289       1.23639985
H       -8.43114775       0.39877533      -0.44970664
H       -8.44600218       2.15509806      -0.11990457
C       -5.40444941       1.22074668       0.35517198
H       -4.36875992       1.23966156       0.42868717
O       -5.55165292       2.11348068       5.61344171
H       -5.10745694       1.85841402       6.45432988
9
Properties=species:S:1:pos:R:3 energy=-723.034756879224 pbc="F F F"
C       -8.03865712       1.18685924       0.24297621
C       -6.60160848       1.20353548       0.31366356
H       -8.45108112       0.99771437       1.25082629
H       -8.42467699       0.39618143      -0.43184418
H       -8.44169406       2.15476467      -0.11294193
C       -5.40110571       1.22541119       0.37990717
H       -4.36561889       1.24543460       0.45752230
O       -5.54529737       2.10411664       5.54124499
H       -5.14018026       1.84702238       6.39943558
9
Properties=species:S:1:pos:R:3 energy=-723.0340762492668 pbc="F F F"
C       -8.03480806       1.18888268       0.25717027
C       -6.59827695       1.20689289       0.33356249
H       -8.44920615       1.00556861       1.26520607
H       -8.41822407       0.39359145      -0.41396471
H       -8.43734535       2.15441101      -0.10597481
C       -5.39773026       1.23008402       0.40475463
H       -4.36250549       1.25120138       0.48627230
O       -5.53829230       2.09460093       5.46961488
H       -5.17353137       1.83580703       6.34414887
9
Properties=species:S:1:pos:R:3 energy=-723.0333809191179 pbc="F F F"
C       -8.03094616       1.19089208       0.27131732
C       -6.59507941       1.21025042       0.35331681
H       -8.44725957       1.01343036       1.27955259
H       -8.41179589       0.39099494      -0.39605782
H       -8.43295381       2.15404627      -0.09899857
C       -5.39430733       1.23477105       0.42976399
H       -4.35941194       1.25696480       0.51493643
O       -5.53076294       2.08489919       5.39866479
H       -5.20740295       1.82479089       6.28829446
9
Properties=species:S:1:pos:R:3 energy=-723.032650302421 pbc="F F F"
C       -8.02707346       1.19288574       0.28541774
C       -6.59202646       1.21360897       0.37291118
H       -8.44522967       1.02130429       1.29387901
H       -8.40539920       0.38838163      -0.37811327
H       -8.42851716       2.15367948      -0.09200864
C       -5.39082151       1.23947808       0.45498375
H       -4.35633062       1.26272776       0.54351421
O       -5.52283318       2.07497713       5.32850797
H       -5.24168875       1.81399692       6.23169802
9
Properties=species:S:1:pos:R:3 energy=-723.0318071805549 pbc="F F F"
C       -8.02319508       1.19486364       0.29947543
C       -6.58911085       1.21697003       0.39235590
H       -8.44311921       1.02919097       1.30818635
H       -8.39903169       0.38575116      -0.36012902
H       -8.42403262       2.15331066      -0.08500479
C       -5.38727569       1.24420384       0.48039603
H       -4.35326114       1.26849194       0.57201857
O       -5.51454833       2.06480752       5.25924999
H       -5.27634538       1.80345024       6.17424152
9
Properties=species:S:1:pos:R:3 energy=-723.030787508972 pbc="F F F"
C       -8.01932100       1.19682841       0.31349969
C       -6.58629760       1.22033588       0.41170096
H       -8.44095348       1.03708458       1.32245678
H       -8.39267704       0.38311858      -0.34211584
H       -8.41949659       2.15292581      -0.07799356
C       -5.38370108       1.24893620       0.50588007
H       -4.35021438       1.27425715       0.60048327
O       -5.50583191       2.05437405       5.19098446
H       -5.31142693       1.79317934       6.11589416
9
Properties=species:S:1:pos:R:3 energy=-723.0295504324512 pbc="F F F"
C       -8.01546156       1.19878292       0.32750031
C       -6.58354936       1.22370889       0.43099976
H       -8.43875966       1.04497875       1.33667081
H       -8.38631771       0.38050023      -0.32408561
H       -8.41490539       2.15250972      -0.07098208
C       -5.38013135       1.25366209       0.53130626
H       -4.34720214       1.28002308       0.62894389
O       -5.49659695       2.04366135       5.12380396
H       -5.34699588       1.78321297       6.05663268
9
Properties=species:S:1:pos:R:3 energy=-723.0280426724017 pbc="F F F"
C       -8.01162716       1.20073001       0.34148707
C       -6.58082878       1.22709144       0.45030573
H       -8.43656494       1.05286713       1.35080900
H       -8.37993617       0.37791247      -0.30605017
H       -8.41025534       2.15204719      -0.06397745
C       -5.37660016       1.25836843       0.55654498
H       -4.34423627       1.28578938       0.65743598
O       -5.48675648       2.03265405       5.05780107
H       -5.38311470       1.77357991       5.99643378
9
Properties=species:S:1:pos:R:3 energy=-723.0256018554242 pbc="F F F"
C       -8.00782815       1.20267256       0.35546976
C       -6.57809850       1.23048589       0.46967225
H       -8.43439654       1.06074335       1.36485189
H       -8.37351488       0.37537165      -0.28802140
H       -8.40554278       2.15152299      -0.05698680
C       -5.37314117       1.26304215       0.58146662
H       -4.34132859       1.29155573       0.68599510
O       -5.47622352       2.02133677       4.99306838
H       -5.41984588       1.76430892       5.93527419
9
Properties=species:S:1:pos:R:3 energy=-723.0234988620776 pbc="F F F"
C       -8.00407490       1.20461341       0.36945816
C       -6.57532116       1.23389461       0.48915275
H       -8.43228164       1.06860106       1.37877999
H       -8.36703631       0.37289413      -0.27001116
H       -8.40076402       2.15092194      -0.05001724
C       -5.36978805       1.26767016       0.60594157
H       -4.33849093       1.29732179       0.71465682
O       -5.46491112       2.00969415       4.92969846
H       -5.45725188       1.75542876       5.87313064
9
Properties=species:S:1:pos:R:3 energy=-723.0214114367413 pbc="F F F"
C       -8.00038000       1.20655513       0.38346239
C       -6.57246090       1.23732004       0.50879902
H       -8.43024619       1.07643434       1.39257582
H       -8.36048418       0.37049482      -0.25203066
H       -8.39591543       2.15023040      -0.04307527
C       -5.36657201       1.27224110       0.62985616
H       -4.33573224       1.30308757       0.74345650
O       -5.45276545       1.99771298       4.86776793
H       -5.49536361       1.74696363       5.80997810
9
Properties=species:S:1:pos:R:3 energy=-723.0194818369555 pbc="F F F"
C       -7.99677356       1.20849792       0.39749528
C       -6.56949376       1.24076526       0.52865000
H       -8.42830629       1.08424088       1.40623738
H       -8.35385214       0.36817731      -0.23408595
H       -8.39099364       2.14944731      -0.03616235
C       -5.36350473       1.27675704       0.65322347
H       -4.33303863       1.30885588       0.77242791
O       -5.43999611       1.98539723       4.80722651
H       -5.53396114       1.73890118       5.74577773
9
Properties=species:S:1:pos:R:3 energy=-723.0178036798897 pbc="F F F"
C       -7.99329410       1.21044088       0.41157094
C       -6.56640144       1.24423363       0.54873855
H       -8.42647328       1.09202008       1.41977008
H       -8.34713860       0.36593972      -0.21618062
H       -8.38599541       2.14857759      -0.02927758
C       -5.36058861       1.28122649       0.67611701
H       -4.33038533       1.31463083       0.80160407
O       -5.42693829       1.97275909       4.74796345
H       -5.57270494       1.73121170       5.68048409
9
Properties=species:S:1:pos:R:3 energy=-723.016380817423 pbc="F F F"
C       -7.98998016       1.21238308       0.42570349
C       -6.56316568       1.24772852       0.56909744
H       -8.42475852       1.09977134       1.43317940
H       -8.34034198       0.36378018      -0.19831825
H       -8.38091750       2.14762621      -0.02242003
C       -5.35782599       1.28565800       0.69861064
H       -4.32774749       1.32041654       0.83101799
O       -5.41392794       1.95981077       4.68986759
H       -5.61125475       1.72386536       5.61405171
9
Properties=species:S:1:pos:R:3 energy=-723.015114606217 pbc="F F F"
C       -7.98687027       1.21432359       0.43990704
C       -6.55976821       1.25125330       0.58975949
H       -8.42317333       1.10749407       1.44647078
H       -8.33346071       0.36169680      -0.18050239
H       -8.37575666       2.14659814      -0.01558877
C       -5.35521920       1.29006012       0.72077825
H       -4.32510027       1.32621715       0.86070269
O       -5.40130103       1.94656450       4.63282780
H       -5.64927031       1.71683233       5.54643511
9
Properties=species:S:1:pos:R:3 energy=-723.0137815737678 pbc="F F F"
C       -7.98400301       1.21626151       0.45419572
C       -6.55619078       1.25481134       0.61075748
H       -8.42172906       1.11518768       1.45964970
H       -8.32649322       0.35968769      -0.16273664
H       -8.37050967       2.14549833      -0.00878287
C       -5.35277058       1.29444138       0.74269371
H       -4.32241881       1.33203678       0.89069116
O       -5.38939352       1.93303250       4.57673293
H       -5.68641135       1.71008279       5.47758880
9
Properties=species:S:1:pos:R:3 energy=-723.011995249509 pbc="F F F"
C       -7.98141650       1.21819589       0.46858339
C       -6.55241542       1.25840597       0.63212401
H       -8.42043684       1.12285156       1.47272153
H       -8.31943803       0.35775096      -0.14502458
H       -8.36517334       2.14433175      -0.00200139
C       -5.35048245       1.29881040       0.76443152
H       -4.31967854       1.33787949       0.92101595
O       -5.37854052       1.91922704       4.52147171
H       -5.72233837       1.70358694       5.40746785
9
Properties=species:S:1:pos:R:3 energy=-723.0093136397207 pbc="F F F"
C       -7.97908326       1.22012426       0.48304426
C       -6.54847315       1.26203518       0.65385875
H       -8.41927300       1.13048150       1.48567952
H       -8.31230932       0.35588541      -0.12737448
H       -8.35975472       2.14310383       0.00475815
C       -5.34835527       1.30318417       0.78616707
H       -4.31689576       1.34373879       0.95163246
O       -5.36894078       1.90516452       4.46691140
H       -5.75683472       1.69732234       5.33611286
9
Properties=species:S:1:pos:R:3 energy=-723.0054970211814 pbc="F F F"
C       -7.97683820       1.22204095       0.49746936
C       -6.54449774       1.26568577       0.67589232
H       -8.41814096       1.13806578       1.49849145
H       -8.30515410       0.35409125      -0.10980441
H       -8.35428227       2.14182098       0.01150147
C       -5.34638562       1.30759728       0.80828738
H       -4.31417263       1.34958604       0.98233433
O       -5.36050706       1.89087010       4.41287425
H       -5.78994141       1.69128187       5.26374384
9
Properties=species:S:1:pos:R:3 energy=-723.0006964833568 pbc="F F F"
C       -7.97449889       1.22393983       0.51173924
C       -6.54063587       1.26934311       0.69814666
H       -8.41693491       1.14559173       1.51112187
H       -8.29802352       0.35236885      -0.09233365
H       -8.34878715       2.14048970       0.01823469
C       -5.34456958       1.31208655       0.83120609
H       -4.31162209       1.35538981       1.01289482
O       -5.35311608       1.87637005       4.35917685
H       -5.82173190       1.68546036       5.19060341
9
Properties=species:S:1:pos:R:3 energy=-722.9954444383033 pbc="F F F"
C       -7.97188289       1.22581483       0.52573444
C       -6.53703423       1.27299260       0.72054368
H       -8.41554910       1.15304667       1.52353537
H       -8.29096873       0.35071860      -0.07498149
H       -8.34330052       2.13911652       0.02496395
C       -5.34290321       1.31668882       0.85533684
H       -4.30935709       1.36111869       1.04308722
O       -5.34664459       1.86169061       4.30563578
H       -5.85227964       1.67985266       5.11693419
9
Properties=species:S:1:pos:R:3 energy=-722.9905282916114 pbc="F F F"
C       -7.96880777       1.22765984       0.53933552
C       -6.53383950       1.27661961       0.74300532
H       -8.41387774       1.16041793       1.53569649
H       -8.28404086       0.34914089      -0.05776721
H       -8.33785355       2.13770797       0.03169538
C       -5.34138261       1.32144088       0.88109329
H       -4.30749056       1.36674124       1.07268479
O       -5.34096934       1.84685805       4.25206761
H       -5.88165808       1.67445359       5.04297878
9
Properties=species:S:1:pos:R:3 energy=-722.9869892419133 pbc="F F F"
C       -7.96509111       1.22946876       0.55242302
C       -6.53119837       1.28020951       0.76545352
H       -8.41181504       1.16769284       1.54756981
H       -8.27729108       0.34763609      -0.04071010
H       -8.33247739       2.13627056       0.03843511
C       -5.34000385       1.32637957       0.90888908
H       -4.30613545       1.37222606       1.10146080
O       -5.33596705       1.83189863       4.19828895
H       -5.90994066       1.66925797       4.96897980
9
Properties=species:S:1:pos:R:3 energy=-722.9841853427557 pbc="F F F"
C       -7.96056617       1.23123645       0.56489108
C       -6.52923635       1.28374827       0.78779923
H       -8.40926413       1.17486125       1.55912655
H       -8.27076618       0.34620426      -0.02382382
H       -8.32720092       2.13481006       0.04519082
C       -5.33876536       1.33153870       0.93910838
H       -4.30539436       1.37754437       1.12920005
O       -5.33152577       1.81683938       4.14413312
H       -5.93720077       1.66425727       4.89516457
9
Properties=species:S:1:pos:R:3 energy=-722.9937413191965 pbc="F F F"
C       -7.95524878       1.23296889       0.57679180
C       -6.52783267       1.28722840       0.80982588
H       -8.40623149       1.18194230       1.57041521
H       -8.26446261       0.34484154      -0.00705645
H       -8.32202646       2.13332345       0.05198844
C       -5.33769282       1.33691702       0.97179284
H       -4.30524947       1.38269849       1.15582119
O       -5.32766483       1.80171638       4.08962837
H       -5.96351086       1.65940353       4.82158272
9
Properties=species:S:1:pos:R:3 energy=-722.993581268268 pbc="F F F"
C       -7.94927252       1.23467928       0.58827916
C       -6.52670770       1.29064667       0.83123464
H       -8.40279032       1.18897405       1.58153413
H       -8.25834432       0.34354157       0.00968623
H       -8.31693920       2.13180205       0.05886562
C       -5.33682952       1.34249071       1.00676310
H       -4.30560534       1.38771071       1.18132923
O       -5.32448827       1.78657155       4.03492864
H       -5.98894281       1.65462342       4.74816922
9
Properties=species:S:1:pos:R:3 energy=-722.9917191707516 pbc="F F F"
C       -7.94277293       1.23638088       0.59950887
C       -6.52557916       1.29399992       0.85172532
H       -8.39901494       1.19599487       1.59258252
H       -8.25237469       0.34229792       0.02649914
H       -8.31192403       2.13023707       0.06586025
C       -5.33621905       1.34823556       1.04383612
H       -4.30636518       1.39260371       1.20573065
O       -5.32210154       1.77144691       3.98018999
H       -6.01356847       1.64984317       4.67485714
9
Properties=species:S:1:pos:R:3 energy=-722.9874924544607 pbc="F F F"
C       -7.93588556       1.23808700       0.61063662
C       -6.52416476       1.29728499       0.87099769
H       -8.39497964       1.20304312       1.60365956
H       -8.24651714       0.34110419       0.04347718
H       -8.30696587       2.12861975       0.07301017
C       -5.33590497       1.35412736       1.08282886
H       -4.30743224       1.39740012       1.22903191
O       -5.32061011       1.75638446       3.92556846
H       -6.03745971       1.64498902       4.60157955
9
Properties=species:S:1:pos:R:3 energy=-722.9809526984745 pbc="F F F"
C       -7.92874597       1.23981092       0.62181811
C       -6.52218222       1.30049873       0.88875156
H       -8.39075873       1.21015717       1.61486444
H       -8.24073505       0.33995397       0.06071529
H       -8.30204961       2.12694129       0.08035325
C       -5.33593086       1.36014189       1.12355827
H       -4.30870976       1.40212261       1.25123946
O       -5.32011941       1.74142623       3.87122011
H       -6.06068840       1.63998720       4.52826950
9
Properties=species:S:1:pos:R:3 energy=-722.9729001065274 pbc="F F F"
C       -7.92148967       1.24156594       0.63320899
C       -6.51934930       1.30363796       0.90468678
H       -8.38642650       1.21737539       1.62629634
H       -8.23499183       0.33884084       0.07830835
H       -8.29716015       2.12519292       0.08792736
C       -5.33634029       1.36625496       1.16584133
H       -4.31010100       1.40679382       1.27235977
O       -5.32073487       1.72661421       3.81730098
H       -6.08332638       1.63476396       4.45486010
9
Properties=species:S:1:pos:R:3 energy=-722.9645834948582 pbc="F F F"
C       -7.91422702       1.24336234       0.64493222
C       -6.51543881       1.30670126       0.91857523
H       -8.38204006       1.22472860       1.63803351
H       -8.22925801       0.33776001       0.09633259
H       -8.29228498       2.12336730       0.09576294
C       -5.33716344       1.37244446       1.20949880
H       -4.31153583       1.41143220       1.29240435
O       -5.32252333       1.71198335       3.76394586
H       -6.10544852       1.62926047       4.38130449
9
Properties=species:S:1:pos:R:3 energy=-722.9572125320785 pbc="F F F"
C       -7.90699597       1.24520177       0.65701660
C       -6.51038186       1.30969214       0.93039588
H       -8.37760707       1.23222601       1.65009408
H       -8.22352456       0.33671130       0.11481052
H       -8.28741898       2.12146128       0.10386923
C       -5.33839201       1.37869428       1.25436243
H       -4.31302065       1.41604416       1.31139911
O       -5.32544071       1.69754823       3.71122852
H       -6.12713819       1.62346083       4.30761362
9
Properties=species:S:1:pos:R:3 energy=-722.9525821891383 pbc="F F F"
C       -7.89982155       1.24708435       0.66947414
C       -6.50413785       1.31261499       0.94016470
H       -8.37312634       1.23987291       1.66248542
H       -8.21778613       0.33569535       0.13375505
H       -8.28255835       2.11947241       0.11225162
C       -5.34001080       1.38498944       1.30026594
H       -4.31457554       1.42063393       1.32937258
O       -5.32942310       1.68331979       3.65921182
H       -6.14848034       1.61735682       4.23380871
9
Properties=species:S:1:pos:R:3 energy=-722.9543618596853 pbc="F F F"
C       -7.89272878       1.24901018       0.68231683
C       -6.49666618       1.31547422       0.94789769
H       -8.36859672       1.24767465       1.67521492
H       -8.21203736       0.33471283       0.15317908
H       -8.27769931       2.11739827       0.12091553
C       -5.34200462       1.39131492       1.34704302
H       -4.31622057       1.42520574       1.34635329
O       -5.33440657       1.66930899       3.60795862
H       -6.16955988       1.61094021       4.15991103
9
Properties=species:S:1:pos:R:3 energy=-722.9706499996955 pbc="F F F"
C       -7.88574268       1.25097938       0.69555667
C       -6.48792624       1.31827421       0.95361081
H       -8.36401702       1.25563653       1.68828994
H       -8.20627289       0.33376438       0.17309551
H       -8.27283807       2.11523643       0.12986637
C       -5.34435830       1.39765571       1.39452739
H       -4.31797583       1.42976383       1.36236974
O       -5.34032723       1.65552676       3.55753177
H       -6.19046174       1.60420278       4.08594180
9
Properties=species:S:1:pos:R:3 energy=-723.0174332543647 pbc="F F F"
C       -7.87888827       1.25299206       0.70920565
C       -6.47787743       1.32101937       0.95732006
H       -8.35938607       1.26376387       1.70171786
H       -8.20048736       0.33285064       0.19351725
H       -8.26797083       2.11298446       0.13910956
C       -5.34705664       1.40399680       1.44255275
H       -4.31986138       1.43431243       1.37745046
O       -5.34712116       1.64198407       3.50799412
H       -6.21127086       1.59713629       4.01192227
9
Properties=species:S:1:pos:R:3 energy=-723.1203423249272 pbc="F F F"
C       -7.87219058       1.25504833       0.72327577
C       -6.46647916       1.32371409       0.95904142
H       -8.35470269       1.27206200       1.71550607
H       -8.19467540       0.33197228       0.21445720
H       -8.26309381       2.11063993       0.14865050
C       -5.35008445       1.41032320       1.49095281
H       -4.32189732       1.43885579       1.39162398
O       -5.35472444       1.62869185       3.45940854
H       -6.23207215       1.58973252       3.93787370
9
Properties=species:S:1:pos:R:3 energy=-723.3102653434136 pbc="F F F"
C       -7.86567461       1.25714830       0.73777903
C       -6.45369082       1.32636277       0.95879086
H       -8.34996571       1.28053624       1.72966193
H       -8.18883166       0.33112995       0.23592828
H       -8.25820322       2.10820041       0.15849461
C       -5.35342655       1.41661989       1.53956128
H       -4.32410370       1.44339815       1.40491880
O       -5.36307317       1.61566106       3.41183787
H       -6.25295056       1.58198324       3.86381732
9
Properties=species:S:1:pos:R:3 energy=-723.6080769256588 pbc="F F F"
C       -7.85936541       1.25929208       0.75272743
C       -6.43947181       1.32896981       0.95658437
H       -8.34517397       1.28919191       1.74419282
H       -8.18295078       0.33032428       0.25794339
H       -8.25329525       2.10566347       0.16864731
C       -5.35706775       1.42287186       1.58821187
H       -4.32650062       1.44794373       1.41736345
O       -5.37210343       1.60290264       3.36534498
H       -6.27399099       1.57388023       3.78977438
9
Properties=species:S:1:pos:R:3 energy=-723.9930619242195 pbc="F F F"
C       -7.85328797       1.26147978       0.76813295
C       -6.42378153       1.33153960       0.95243794
H       -8.34032627       1.29803432       1.75910611
H       -8.17702740       0.32955594       0.28051543
H       -8.24836613       2.10302668       0.17911399
C       -5.36099286       1.42906411       1.63673828
H       -4.32910815       1.45249677       1.42898644
O       -5.38175131       1.59042754       3.31999272
H       -6.29527838       1.56541526       3.71576613
9
Properties=species:S:1:pos:R:3 energy=-724.3905030798584 pbc="F F F"
C       -7.84746734       1.26371152       0.78400760
C       -6.40657938       1.33407655       0.94636754
H       -8.33542145       1.30706880       1.77440919
H       -8.17105616       0.32882557       0.30365731
H       -8.24341206       2.10028762       0.18990008
C       -5.36518669       1.43518163       1.68497422
H       -4.33194637       1.45706151       1.43981631
O       -5.39195289       1.57824671       3.27584395
H       -6.31689766       1.55658009       3.64181380
9
Properties=species:S:1:pos:R:3 energy=-724.7062011041384 pbc="F F F"
C       -7.84192852       1.26598740       0.80036338
C       -6.38782476       1.33658504       0.93838916
H       -8.33045834       1.31630067       1.79010943
H       -8.16503170       0.32813383       0.32738193
H       -8.23842925       2.09744385       0.20101098
C       -5.36963406       1.44120941       1.73275339
H       -4.33503534       1.46164219       1.44988156
O       -5.40264427       1.56637110       3.23296151
H       -6.33893375       1.54736651       3.56793865
9
Properties=species:S:1:pos:R:3 energy=-724.8417525246604 pbc="F F F"
C       -7.83669654       1.26830754       0.81721227
C       -6.36747707       1.33906948       0.92851877
H       -8.32543575       1.32573524       1.80621421
H       -8.15894866       0.32748137       0.35170220
H       -8.23341391       2.09449294       0.21245211
C       -5.37431978       1.44713244       1.77990951
H       -4.33839516       1.46624305       1.45921071
O       -5.41376153       1.55481165       3.19140828
H       -6.36147158       1.53776629       3.49416191
