9
Properties=species:S:1:pos:R:3 energy=-722.9525821891383 pbc="F F F"
C       -7.89982155       1.24708435       0.66947414
C       -6.50413785       1.31261499       0.94016470
H       -8.37312634       1.23987291       1.66248542
H       -8.21778613       0.33569535       0.13375505
H       -8.28255835       2.11947241       0.11225162
C       -5.34001080       1.38498944       1.30026594
H       -4.31457554       1.42063393       1.32937258
O       -5.32942310       1.68331979       3.65921182
H       -6.14848034       1.61735682       4.23380871
