20
Properties=species:S:1:pos:R:3 energy=-12538.892966693906 pbc="F F F"
C        1.95051000      -0.67445700       0.54754400
H        0.91903000      -0.42927900       0.68366900
H        2.29534800      -1.60780600       0.93582000
C        2.87061600       0.22229800      -0.16789400
C        2.25546000       1.57381500      -0.55211200
C        1.92438800       2.44075400       0.66481900
H        1.72599200       1.84416800       1.58483900
C        2.95395200       3.53501800       0.97681900
O        2.61054800       4.69104500       1.08834600
C        4.37000100       3.09175500       1.17895200
O        0.67778700       3.06858500       0.24322300
O        0.12148300       3.73310900       1.35524900
H        3.79326100       0.37798000       0.43451700
H        3.22099400      -0.29093600      -1.09603800
H        2.91937300       2.11553400      -1.25205000
H        1.31024700       1.40810600      -1.12341000
H        4.45052000       2.28958300       1.92421100
H        4.81717200       2.72025700       0.24674900
H        5.00032500       3.92634900       1.52621900
H        0.53082200       4.65802900       1.24518100
