5
Properties=species:S:1:pos:R:3 energy=-4145.149733410671 pbc="F F F"
O        0.92306300      -0.02660600       0.12021800
C        0.50364500       0.68896100       1.15740500
C        0.09599200       1.33199500       2.08947600
H        1.91774700      -0.06213300       0.06933800
H       -0.28015900       1.89429200       2.90445300
