9
Properties=species:S:1:pos:R:3 energy=-5226.779534767243 pbc="F F F"
C        0.10288970       0.56117485      -1.19832184
C       -0.02447857      -0.27808695       0.73656870
H       -0.71349227       0.10130539      -1.70177781
H        1.08720267       0.20448260      -1.39261492
H       -0.01649462       1.56058488      -0.84525032
C       -0.72830184      -1.26977327       0.60373826
H       -1.32731646      -2.05469910       0.31084882
O        0.73799793       0.67522909       1.25319055
H        0.88199346       0.49978252       2.23361857
