22
Properties=species:S:1:pos:R:3 energy=-15622.730053411073 pbc="F F F"
O       -1.71886200       2.64616100       2.31016500
C       -0.90396000       2.43951900       1.49814400
C       -0.56412400       2.67038200       0.09772500
C        0.73020400       1.95481000      -0.30958100
C        0.65580400       0.43310300      -0.13213500
C       -0.46955100      -0.26447400      -0.90341500
H       -0.33405400      -1.37070600      -0.87289400
C       -0.61204400       0.25224300      -2.34720200
O       -1.27827600       1.22038700      -2.61864800
C        0.14702800      -0.53856200      -3.36828800
H       -2.07905000      -0.31155400       1.49067300
H       -1.40736100       2.31156400      -0.55600200
H       -0.48391000       3.76082300      -0.10597800
H        0.96114500       2.20876000      -1.36374100
H        1.57659000       2.34485600       0.29211600
H        1.62850500      -0.01667500      -0.41240500
H        0.51606500       0.19993000       0.94742900
H       -0.32580300      -1.51621500      -3.54650000
H        0.16586000      -0.01820700      -4.33944000
H        1.18686500      -0.72594100      -3.07345200
O       -1.96116200      -0.93138400       0.70678800
O       -1.77136200       0.03270400      -0.32173100
