8
Properties=species:S:1:pos:R:3 energy=-5213.216905901467 pbc="F F F"
C        0.89361600      -0.07952400       0.09153400
C        0.38939800      -0.92244300       1.17590700
C       -0.00258800      -1.62226000       2.07429600
O       -0.40757700      -2.40523200       3.07682000
H        0.56854800       0.96168300       0.21074100
H        0.54521000      -0.43425600      -0.88660300
H        1.99076700      -0.08693700       0.07823300
H       -1.40066300      -2.40418000       3.16176100
