9
Properties=species:S:1:pos:R:3 energy=-5226.687322588808 pbc="F F F"
C       -1.09507755      -0.26454358      -1.13845263
C       -0.28125850       0.14413889      -0.03589464
H       -1.35653117      -1.33564551      -1.07918124
H       -0.58908709      -0.09579773      -2.10521486
H       -2.04301585       0.30410021      -1.16034526
C        0.48123344       0.42162878       0.86962403
H        1.88449811      -0.64416982       0.62945835
O        1.05027197       0.95520664       1.94026664
H        1.94896663       0.51508212       2.07973959
