5
Properties=species:S:1:pos:R:3 energy=-4146.642842940723 pbc="F F F"
C        1.01248200      -0.03362300       0.06491700
C        0.35876600       1.09308600       0.17700500
O       -0.23419800       2.11508500       0.27867600
H        0.47936900      -0.97045300      -0.02828100
H        2.09436200      -0.04261600       0.06402300
