5
Properties=species:S:1:pos:R:3 energy=-4146.642629020696 pbc="F F F"
C        1.01245700      -0.03358000       0.06492200
C        0.35874300       1.09312500       0.17700900
O       -0.23425900       2.11518900       0.27868600
H        0.47954500      -0.97047600      -0.02828300
H        2.09429400      -0.04278000       0.06400600
