9
Properties=species:S:1:pos:R:3 energy=-724.6500662111376 pbc="F F F"
C       -6.40215500       1.91222100      -1.30283600
C       -6.60457700       1.16323500      -0.00909900
H       -6.97357300       1.45052800      -2.10913400
H       -5.33739900       1.91505500      -1.56151300
H       -6.71944500       2.95338900      -1.17661800
C       -7.36951100       0.09958800       0.11250900
H       -7.70438100      -0.61679900       0.84249500
O       -5.85657600       1.77789000       1.01991900
H       -5.99572400       1.27794100       1.86889400
9
Properties=species:S:1:pos:R:3 energy=-724.710004855664 pbc="F F F"
C       -6.40024181       1.91054854      -1.29914671
C       -6.60195660       1.16316748      -0.01295963
H       -6.98203658       1.46465711      -2.11075301
H       -5.34004975       1.90638309      -1.57834736
H       -6.70579557       2.95725853      -1.17368354
C       -7.35727899       0.09714355       0.13373713
H       -7.69765240      -0.62208040       0.84056857
O       -5.86436457       1.77664843       1.01926387
H       -6.01396472       1.27932168       1.86593768
9
Properties=species:S:1:pos:R:3 energy=-724.7514777166409 pbc="F F F"
C       -6.39841287       1.90912406      -1.29644181
C       -6.59919713       1.16295377      -0.01603368
H       -6.99075853       1.47944858      -2.11264774
H       -5.34291900       1.89747149      -1.59562644
H       -6.69157707       2.96101168      -1.17050033
C       -7.34537565       0.09440767       0.15332987
H       -7.69023642      -0.62749407       0.84034686
O       -5.87210309       1.77556442       1.01876385
H       -6.03276124       1.28056040       1.86342642
9
Properties=species:S:1:pos:R:3 energy=-724.7785522370764 pbc="F F F"
C       -6.39667879       1.90793858      -1.29470778
C       -6.59636411       1.16257437      -0.01853662
H       -6.99969403       1.49483383      -2.11481719
H       -5.34599120       1.88837112      -1.61326783
H       -6.67686725       2.96461450      -1.16708729
C       -7.33378914       0.09143224       0.17138872
H       -7.68216680      -0.63295920       0.84171381
O       -5.87978792       1.77456974       1.01849473
H       -6.05200176       1.28167282       1.86143643
9
Properties=species:S:1:pos:R:3 energy=-724.7944278657412 pbc="F F F"
C       -6.39505021       1.90698312      -1.29393107
C       -6.59352307       1.16200975      -0.02068390
H       -7.00879825       1.51074429      -2.11726032
H       -5.34925077       1.87913286      -1.63118911
H       -6.66174389       2.96803303      -1.16346334
C       -7.32250762       0.08826915       0.18801519
H       -7.67347731      -0.63839500       0.84455336
O       -5.88741541       1.77359617       1.01853229
H       -6.07157447       1.28267462       1.86004390
9
Properties=species:S:1:pos:R:3 energy=-724.801649526664 pbc="F F F"
C       -6.39353773       1.90624867      -1.29409817
C       -6.59073955       1.16124041      -0.02269100
H       -7.01802636       1.52711136      -2.11997612
H       -5.35268216       1.86980761      -1.64930786
H       -6.64628477       2.97123334      -1.15964738
C       -7.31151926       0.08497028       0.20331077
H       -7.66420170      -0.64372065       0.84874944
O       -5.89498191       1.77257551       1.01895231
H       -6.09136755       1.28358147       1.85932502
9
Properties=species:S:1:pos:R:3 energy=-724.8022650877133 pbc="F F F"
C       -6.39215199       1.90572625      -1.29519555
C       -6.58807907       1.16024683      -0.02477338
H       -7.02733354       1.54386646      -2.12296355
H       -5.35626982       1.86044626      -1.66754168
H       -6.63056766       2.97418147      -1.15565835
C       -7.30081223       0.08158752       0.21737696
H       -7.65437372      -0.64885536       0.85418599
O       -5.90248376       1.77143952       1.01983057
H       -6.11126920       1.28440904       1.85935599
9
Properties=species:S:1:pos:R:3 energy=-724.7979272040392 pbc="F F F"
C       -6.39090360       1.90540688      -1.29720966
C       -6.58560717       1.15900949      -0.02714650
H       -7.03667497       1.56094101      -2.12622161
H       -5.35999817       1.85109972      -1.68580813
H       -6.61467032       2.97684347      -1.15151514
C       -7.29037469       0.07817276       0.23031526
H       -7.64402713      -0.65371833       0.86074695
O       -5.90991733       1.77012000       1.02124284
H       -6.13116761       1.28517301       1.86021300
9
Properties=species:S:1:pos:R:3 energy=-724.7899358986982 pbc="F F F"
C       -6.38980320       1.90528156      -1.30012700
C       -6.58338938       1.15750889      -0.03002583
H       -7.04600580       1.57826643      -2.12974926
H       -5.36385167       1.84181886      -1.70402481
H       -6.59867054       2.97918539      -1.14723669
C       -7.28019480       0.07477787       0.24222717
H       -7.63319568      -0.65822875       0.86831624
O       -5.91727895       1.76854872       1.02326491
H       -6.15095097       1.28588903       1.86197226
9
Properties=species:S:1:pos:R:3 energy=-724.7792267980984 pbc="F F F"
C       -6.38886139       1.90534130      -1.30393401
C       -6.58149122       1.15572550      -0.03362683
H       -7.05528123       1.59577413      -2.13354548
H       -5.36781475       1.83265460      -1.72210930
H       -6.58264609       2.98117328      -1.14284189
C       -7.27026073       0.07145475       0.25321420
H       -7.62191313      -0.66230582       0.87677782
O       -5.92456499       1.76665747       1.02597255
H       -6.17050746       1.28657279       1.86470996
9
Properties=species:S:1:pos:R:3 energy=-724.7663111192664 pbc="F F F"
C       -6.38808881       1.90557712      -1.30861719
C       -6.57997824       1.15363983      -0.03816496
H       -7.06445643       1.61339553      -2.13760926
H       -5.37187186       1.82365782      -1.73997919
H       -6.56667472       2.98277318      -1.13834968
C       -7.26056064       0.06825528       0.26337783
H       -7.61021323      -0.66586874       0.88601561
O       -5.93177178       1.76437802       1.02944155
H       -6.18972528       1.28723996       1.86850229
9
Properties=species:S:1:pos:R:3 energy=-724.7511787301239 pbc="F F F"
C       -6.38749608       1.90598003      -1.31416299
C       -6.57891596       1.15123234      -0.04385570
H       -7.07348655       1.63106204      -2.14193957
H       -5.37600742       1.81487943      -1.75755205
H       -6.55083423       2.98395116      -1.13377896
C       -7.25108271       0.06523134       0.27281958
H       -7.59812973      -0.66883670       0.89591355
O       -5.93889569       1.76164216       1.03374768
H       -6.20849263       1.28790620       1.87342545
9
Properties=species:S:1:pos:R:3 energy=-724.7331813396222 pbc="F F F"
C       -6.38709381       1.90654103      -1.32055789
C       -6.57836990       1.14848353      -0.05091449
H       -7.08232679       1.64870508      -2.14653538
H       -5.38020589       1.80637031      -1.77474548
H       -6.53520238       2.98467326      -1.12914864
C       -7.24181508       0.06243481       0.28164094
H       -7.58569639      -0.67112890       0.90635558
O       -5.94593306       1.75838168       1.03896673
H       -6.22669768       1.28858719       1.87955563
9
Properties=species:S:1:pos:R:3 energy=-724.7109150143875 pbc="F F F"
C       -6.38689264       1.90725114      -1.32778836
C       -6.57840562       1.14537389      -0.05955681
H       -7.09093232       1.66625606      -2.15139567
H       -5.38445171       1.79818136      -1.79147705
H       -6.51985694       2.98490553      -1.12447765
C       -7.23274593       0.05991760       0.28994340
H       -7.57294697      -0.67266454       0.91722564
O       -5.95288025       1.75452835       1.04517447
H       -6.24422863       1.28929860       1.88696904
9
Properties=species:S:1:pos:R:3 energy=-724.682169442504 pbc="F F F"
C       -6.38689958       1.90809935      -1.33582415
C       -6.57908992       1.14187192      -0.06996543
H       -7.09925864       1.68363459      -2.15652066
H       -5.38871867       1.79036550      -1.80766460
H       -6.50488527       2.98462671      -1.11978940
C       -7.22385341       0.05775058       0.29782802
H       -7.55993028      -0.67337501       0.92839580
O       -5.95973051       1.75002067       1.05243437
H       -6.26097473       1.29005369       1.89572306
9
Properties=species:S:1:pos:R:3 energy=-724.6442492304444 pbc="F F F"
C       -6.38710147       1.90906333      -1.34454146
C       -6.58049686       1.13787908      -0.08214016
H       -7.10726325       1.70069412      -2.16191741
H       -5.39292107       1.78298695      -1.82322735
H       -6.49042826       2.98388655      -1.11513245
C       -7.21505960       0.05611110       0.30539321
H       -7.54677953      -0.67325991       0.93967182
O       -5.96645981       1.74483464       1.06074097
H       -6.27683115       1.29085215       1.90576982
9
Properties=species:S:1:pos:R:3 energy=-724.5943615958773 pbc="F F F"
C       -6.38747817       1.91011680      -1.35378397
C       -6.58270302       1.13327354      -0.09601719
H       -7.11490428       1.71726510      -2.16759537
H       -5.39695253       1.77611388      -1.83808500
H       -6.47664545       2.98275949      -1.11056411
C       -7.20626710       0.05521346       0.31273650
H       -7.53365722      -0.67234257       0.95083640
O       -5.97303810       1.73895932       1.07006489
H       -6.29169513       1.29168898       1.91702485
9
Properties=species:S:1:pos:R:3 energy=-724.5299069159105 pbc="F F F"
C       -6.38800950       1.91123350      -1.36339533
C       -6.58578498       1.12793342      -0.11153267
H       -7.12213989       1.73317797      -2.17356403
H       -5.40070663       1.76981445      -1.85215725
H       -6.46369639       2.98131999      -1.10614171
C       -7.19737849       0.05527201       0.31995542
H       -7.52072589      -0.67064633       0.96167221
O       -5.97943533       1.73238380       1.08037669
H       -6.30546390       1.29255918       1.92940367
9
Properties=species:S:1:pos:R:3 energy=-724.4487898211503 pbc="F F F"
C       -6.38867530       1.91238715      -1.37321918
C       -6.58981931       1.12173685      -0.12862275
H       -7.12892821       1.74826318      -2.17983283
H       -5.40407695       1.76415683      -1.86536381
H       -6.45174063       2.97964253      -1.10192256
C       -7.18829636       0.05650112       0.32714749
H       -7.50814809      -0.66819453       0.97196191
O       -5.98562144       1.72509714       1.09164695
H       -6.31803470       1.29345774       1.94282177
9
Properties=species:S:1:pos:R:3 energy=-724.3497553402008 pbc="F F F"
C       -6.38945540       1.91355149      -1.38309916
C       -6.59488258       1.11456198      -0.14722356
H       -7.13522741       1.76235115      -2.18641124
H       -5.40695709       1.75920917      -1.87762437
H       -6.44093772       2.97780155      -1.09796398
C       -7.17892329       0.05911512       0.33441024
H       -7.49608636      -0.66501053       0.98148819
O       -5.99156639       1.71708843       1.10384623
H       -6.32930476       1.29437965       1.95719466
9
Properties=species:S:1:pos:R:3 energy=-724.2328023278341 pbc="F F F"
C       -6.39032962       1.91470049      -1.39287960
C       -6.60104972       1.10628918      -0.16727043
H       -7.14099577       1.77527306      -2.19330807
H       -5.40924137       1.75503912      -1.88885862
H       -6.43144627       2.97587149      -1.09432299
C       -7.16916288       0.06332620       0.34184058
H       -7.48470279      -0.66111818       0.99003534
O       -5.99724094       1.70834626       1.11694373
H       -6.33917164       1.29532037       1.97243705
9
Properties=species:S:1:pos:R:3 energy=-724.1002551332459 pbc="F F F"
C       -6.39127666       1.91582340      -1.40244553
C       -6.60829643       1.09693413      -0.18864969
H       -7.14619960       1.78690444      -2.20049275
H       -5.41086925       1.75168264      -1.89898449
H       -6.42336767       2.97392519      -1.09103789
C       -7.15898079       0.06921527       0.34949888
H       -7.47413297      -0.65657221       0.99748610
O       -6.00266529       1.69883152       1.13082562
H       -6.34755233       1.29630362       1.98841675
9
Properties=species:S:1:pos:R:3 energy=-723.958002733248 pbc="F F F"
C       -6.39227353       1.91693305      -1.41174510
C       -6.61644466       1.08672217      -0.21117170
H       -7.15081769       1.79718960      -2.20787371
H       -5.41185005       1.74912656      -1.90791725
H       -6.41671473       2.97203300      -1.08811802
C       -7.14843882       0.07665983       0.35738886
H       -7.46447137      -0.65147519       1.00387571
O       -6.00793621       1.68846208       1.14524940
H       -6.35439393       1.29739691       2.00492881
9
Properties=species:S:1:pos:R:3 energy=-723.8149005663944 pbc="F F F"
C       -6.39329709       1.91804433      -1.42073186
C       -6.62530310       1.07589667      -0.23464032
H       -7.15482989       1.80607872      -2.21535411
H       -5.41219915       1.74735351      -1.91557192
H       -6.41149258       2.97026503      -1.08557019
C       -7.13760705       0.08551987       0.36550935
H       -7.45580892      -0.64593381       1.00925253
O       -6.01315708       1.67715214       1.15996150
H       -6.35964613       1.29867151       2.02176203
9
Properties=species:S:1:pos:R:3 energy=-723.6811815386907 pbc="F F F"
C       -6.39432419       1.91917215      -1.42935938
C       -6.63468047       1.06470103      -0.25885939
H       -7.15821604       1.81352203      -2.22283712
H       -5.41193190       1.74634613      -1.92186355
H       -6.40770640       2.96869143      -1.08340124
C       -7.12655556       0.09565540       0.37385919
H       -7.44823656      -0.64005476       1.01366495
O       -6.01843127       1.66481588       1.17470834
H       -6.36325862       1.30019871       2.03870520
9
Properties=species:S:1:pos:R:3 energy=-723.5656550877092 pbc="F F F"
C       -6.39533168       1.92033137      -1.43758123
C       -6.64438545       1.05337862      -0.28363274
H       -7.16095600       1.81946972      -2.23022591
H       -5.41106366       1.74608703      -1.92670715
H       -6.40536133       2.96738232      -1.08161800
C       -7.11535442       0.10692640       0.38243723
H       -7.44184523      -0.63394473       1.01716133
O       -6.02386216       1.65136749       1.18923635
H       -6.36518108       1.30204977       2.05554714
9
Properties=species:S:1:pos:R:3 energy=-723.4730311991923 pbc="F F F"
C       -6.39629641       1.92153689      -1.44535097
C       -6.65422676       1.04217283      -0.30876423
H       -7.16302962       1.82387201      -2.23742365
H       -5.40960978       1.74655884      -1.93001777
H       -6.40446253       2.96640783      -1.08022731
C       -7.10407370       0.11919288       0.39124230
H       -7.43672586      -0.62771040       1.01979005
O       -6.02955311       1.63672115       1.20329196
H       -6.36536321       1.30429598       2.07207663
9
Properties=species:S:1:pos:R:3 energy=-723.4031974965835 pbc="F F F"
C       -6.39719729       1.92279747      -1.45263066
C       -6.66402094       1.03130400      -0.33405856
H       -7.16443334       1.82672000      -2.24434010
H       -5.40760228       1.74772676      -1.93175455
H       -6.40498081       2.96581818      -1.07922697
C       -7.09277017       0.13232082       0.40028071
H       -7.43292868      -0.62144456       1.02160407
O       -6.03560585       1.62081481       1.21664151
H       -6.36380165       1.30699052       2.08810156
9
Properties=species:S:1:pos:R:3 energy=-723.3528422261064 pbc="F F F"
C       -6.39802932       1.92407312      -1.45944988
C       -6.67364671       1.02080955      -0.35932720
H       -7.16529533       1.82832977      -2.25093743
H       -5.40520546       1.74941759      -1.93222701
H       -6.40661403       2.96550546      -1.07854316
C       -7.08139472       0.14622379       0.40961810
H       -7.43018074      -0.61512951       1.02269288
O       -6.04210886       1.60377522       1.22920949
H       -6.36086581       1.31004300       2.10358122
9
Properties=species:S:1:pos:R:3 energy=-723.3185127524964 pbc="F F F"
C       -6.39879523       1.92530066      -1.46587037
C       -6.68301246       1.01063968      -0.38438492
H       -7.16580659       1.82917233      -2.25720276
H       -5.40264672       1.75139211      -1.93191177
H       -6.40892997       2.96528634      -1.07806789
C       -7.06984783       0.16083805       0.41934839
H       -7.42805492      -0.60869489       1.02316336
O       -6.04914435       1.58581915       1.24099580
H       -6.35710293       1.31329455       2.11854715
9
Properties=species:S:1:pos:R:3 energy=-723.2986267624945 pbc="F F F"
C       -6.39949779       1.92641673      -1.47195408
C       -6.69202676       1.00074404      -0.40904645
H       -7.16615850       1.82971965      -2.26312340
H       -5.40015382       1.75341072      -1.93128645
H       -6.41149555       2.96497706      -1.07769294
C       -7.05802962       0.17610001       0.42956566
H       -7.42612318      -0.60207000       1.02312253
O       -6.05679448       1.56716391       1.25200082
H       -6.35306129       1.31658588       2.13303132
9
Properties=species:S:1:pos:R:3 energy=-723.2945151240502 pbc="F F F"
C       -6.40013976       1.92735799      -1.47776298
C       -6.70059820       0.99107229      -0.43312656
H       -7.16654243       1.83044370      -2.26868664
H       -5.39795455       1.75523382      -1.93082869
H       -6.41387773       2.96439381      -1.07731012
C       -7.04584025       0.19194604       0.44036401
H       -7.42395745      -0.59518416       1.02267738
O       -6.06514141       1.54802683       1.26222490
H       -6.34928922       1.31975767       2.14706571
9
Properties=species:S:1:pos:R:3 energy=-723.3107903201427 pbc="F F F"
C       -6.40072391       1.92806110      -1.48335900
C       -6.70863533       0.98157407      -0.45643999
H       -7.16714978       1.83181644      -2.27387978
H       -5.39627667       1.75662178      -1.93101613
H       -6.41564345       2.96335283      -1.07681123
C       -7.03317984       0.20831256       0.45183753
H       -7.42112970      -0.58796666       1.02193491
O       -6.07426730       1.52862523       1.27166841
H       -6.34633502       1.32265065       2.16068228
9
Properties=species:S:1:pos:R:3 energy=-723.3547923862803 pbc="F F F"
C       -6.40125306       1.92846280      -1.48880409
C       -6.71604698       0.97219913      -0.47880174
H       -7.16817158       1.83430889      -2.27869013
H       -5.39534746       1.75733548      -1.93232546
H       -6.41636050       2.96167070      -1.07608822
C       -7.01994902       0.22513567       0.46407944
H       -7.41721277      -0.58034712       1.02100202
O       -6.08425380       1.50917650       1.28033216
H       -6.34474583       1.32510595       2.17391302
9
Properties=species:S:1:pos:R:3 energy=-723.4342672916817 pbc="F F F"
C       -6.40173971       1.92851567      -1.49415669
C       -6.72278270       0.96291307      -0.50006341
H       -7.16974349       1.83823606      -2.28310956
H       -5.39531014       1.75721303      -1.93507892
H       -6.41573310       2.95922663      -1.07505693
C       -7.00612652       0.24230373       0.47704100
H       -7.41192719      -0.57230425       1.01996590
O       -6.09509802       1.48990931       1.28828643
H       -6.34488013       1.32703475       2.18678919
9
Properties=species:S:1:pos:R:3 energy=-723.5523163985813 pbc="F F F"
C       -6.40221661       1.92820548      -1.49946796
C       -6.72887745       0.95371464      -0.52015340
H       -7.17188506       1.84358581      -2.28713947
H       -5.39613179       1.75625456      -1.93927494
H       -6.41375156       2.95603112      -1.07368342
C       -6.99185486       0.25960500       0.49037578
H       -7.40530310      -0.56391975       1.01887252
O       -6.10661984       1.47107605       1.29574728
H       -6.34670073       1.32849508       2.19934061
9
Properties=species:S:1:pos:R:3 energy=-723.7030449778198 pbc="F F F"
C       -6.40271907       1.92752217      -1.50478814
C       -6.73437695       0.94460681      -0.53900979
H       -7.17460121       1.85030484      -2.29078245
H       -5.39775727       1.75448058      -1.94487115
H       -6.41044221       2.95211116      -1.07194002
C       -6.97729718       0.27681515       0.50369987
H       -7.39740964      -0.55528827       1.01776267
O       -6.11861681       1.45293205       1.30294910
H       -6.35012066       1.32956350       2.21159692
9
Properties=species:S:1:pos:R:3 energy=-723.8723297922774 pbc="F F F"
C       -6.40328241       1.92645568      -1.51016745
C       -6.73932692       0.93559251      -0.55657067
H       -7.17789685       1.85833983      -2.29404110
H       -5.40013146       1.75191163      -1.95182520
H       -6.40583138       2.94749376      -1.06979908
C       -6.96261662       0.29370984       0.51662935
H       -7.38831597      -0.54650448       1.01667711
O       -6.13088648       1.43573268       1.31012628
H       -6.35505291       1.33031655       2.22358775
9
Properties=species:S:1:pos:R:3 energy=-724.0433945167764 pbc="F F F"
C       -6.40394194       1.92499595      -1.51565613
C       -6.74377305       0.92667471      -0.57277410
H       -7.18177689       1.86763747      -2.29691800
H       -5.40319924       1.74856821      -1.96009471
H       -6.39994542       2.94220595      -1.06723293
C       -6.94797633       0.31006471       0.52878032
H       -7.37809121      -0.53766303       1.01565661
O       -6.14322643       1.41973327       1.31751322
H       -6.36141049       1.33083077       2.23534273
9
Properties=species:S:1:pos:R:3 energy=-724.2021723449166 pbc="F F F"
C       -6.40473296       1.92313294      -1.52130443
C       -6.74776108       0.91785635      -0.58755817
H       -7.18624627       1.87814443      -2.29941576
H       -5.40690548       1.74447085      -1.96963734
H       -6.39281065       2.93627474      -1.06421394
C       -6.93353946       0.32565542       0.53976885
H       -7.36680452      -0.52885859       1.01474197
O       -6.15543419       1.40518917       1.32534431
H       -6.36910640       1.33118270       2.24689151
9
Properties=species:S:1:pos:R:3 energy=-724.3396939258064 pbc="F F F"
C       -6.40568824       1.92085878      -1.52715503
C       -6.75133518       0.90914310      -0.60087058
H       -7.19130236       1.88980263      -2.30153418
H       -5.41119805       1.73964393      -1.98040496
H       -6.38445843       2.92972678      -1.06072024
C       -6.91946393       0.34027034       0.54923786
H       -7.35452757      -0.52018509       1.01396976
O       -6.16731251       1.39234444       1.33383562
H       -6.37805473       1.33144310       2.25825874
9
Properties=species:S:1:pos:R:3 energy=-724.4527526312294 pbc="F F F"
C       -6.40681107       1.91819136      -1.53316298
C       -6.75452163       0.90057220      -0.61277090
H       -7.19685498       1.90249840      -2.30324064
H       -5.41605976       1.73415668      -1.99228249
H       -6.37497844       2.92258476      -1.05679737
C       -6.90584711       0.35384542       0.55714197
H       -7.34136165      -0.51172813       1.01332803
O       -6.17872437       1.38131176       1.34299010
H       -6.38818199       1.33161555       2.26941128
9
Properties=species:S:1:pos:R:3 energy=-724.5418844376154 pbc="F F F"
C       -6.40808566       1.91516515      -1.53922679
C       -6.75733520       0.89220123      -0.62339086
H       -7.20275747       1.91608223      -2.30448162
H       -5.42149591       1.72810730      -2.00511169
H       -6.36449797       2.91486875      -1.05253436
C       -6.89274730       0.36641187       0.56363695
H       -7.32742713      -0.50356790       1.01277348
O       -6.18957164       1.37211906       1.35267321
H       -6.39942272       1.33166031       2.28027869
9
Properties=species:S:1:pos:R:3 energy=-724.6095107724143 pbc="F F F"
C       -6.40949595       1.91181491      -1.54524402
C       -6.75979044       0.88408815      -0.63286341
H       -7.20886221       1.93040401      -2.30520325
H       -5.42751222       1.72159443      -2.01873357
H       -6.35314494       2.90659883      -1.04802096
C       -6.88022213       0.37800248       0.56888190
H       -7.31284470      -0.49578453       1.01226230
O       -6.19975681       1.36479285       1.36274811
H       -6.41171160       1.33153688       2.29078991
9
Properties=species:S:1:pos:R:3 energy=-724.6591268144039 pbc="F F F"
C       -6.41102586       1.90817538      -1.55111224
C       -6.76190192       0.87629088      -0.64132150
H       -7.21502159       1.94531363      -2.30535165
H       -5.43411436       1.71471675      -2.03298916
H       -6.34104729       2.89779502      -1.04334692
C       -6.86832925       0.38865003       0.57303592
H       -7.29773505      -0.48845812       1.01175068
O       -6.20918239       1.35935965       1.37307799
H       -6.42498329       1.33120478       2.30087388
9
Properties=species:S:1:pos:R:3 energy=-724.6946806700153 pbc="F F F"
C       -6.41265929       1.90428131      -1.55672901
C       -6.76368420       0.86886737      -0.64889807
H       -7.22108801       1.96066099      -2.30487295
H       -5.44130803       1.70757292      -2.04771946
H       -6.32833293       2.88847738      -1.03860199
C       -6.85712629       0.39838731       0.57625813
H       -7.28221887      -0.48166880       1.01119481
O       -6.21775088       1.35584598       1.38352600
H       -6.43917249       1.33062353       2.31045955
9
Properties=species:S:1:pos:R:3 energy=-724.7200742033785 pbc="F F F"
C       -6.41438016       1.90016747      -1.56199192
C       -6.76515186       0.86187550      -0.65572604
H       -7.22691387       1.97629600      -2.30371329
H       -5.44909892       1.70026159      -2.06276554
H       -6.31512979       2.87866597      -1.03387590
C       -6.84667088       0.40724714       0.57870761
H       -7.26641684      -0.47549665       1.01055087
O       -6.22536483       1.35427832       1.39395534
H       -6.45421386       1.32975267       2.31947586
9
Properties=species:S:1:pos:R:3 energy=-724.7387812346427 pbc="F F F"
C       -6.41616687       1.89588360      -1.56682829
C       -6.76633636       0.85532083      -0.66192087
H       -7.23238392       1.99208899      -2.30184130
H       -5.45747794       1.69286739      -2.07799106
H       -6.30155114       2.86839089      -1.02923990
C       -6.83699028       0.41529010       0.58052455
H       -7.25043600      -0.47000284       1.00978348
O       -6.23196109       1.35464173       1.40425672
H       -6.47003740       1.32856732       2.32787367
9
Properties=species:S:1:pos:R:3 energy=-724.7534697151682 pbc="F F F"
C       -6.41798194       1.89152253      -1.57125103
C       -6.76731776       0.84905841      -0.66754776
H       -7.23747583       2.00796908      -2.29929025
H       -5.46639353       1.68543463      -2.09332487
H       -6.28766819       2.85771111      -1.02471207
C       -6.82802456       0.42265663       0.58179479
H       -7.23434425      -0.46519405       1.00888149
O       -6.23757523       1.35680218       1.41439999
H       -6.48655971       1.32708748       2.33566671
9
Properties=species:S:1:pos:R:3 energy=-724.7657814254565 pbc="F F F"
C       -6.41978507       1.88718478      -1.57528828
C       -6.76818480       0.84291640      -0.67266294
H       -7.24218388       2.02387588      -2.29610498
H       -5.47578653       1.67800041      -2.10870743
H       -6.27354463       2.84669078      -1.02030098
C       -6.81969818       0.42950144       0.58259446
H       -7.21820244      -0.46106723       1.00783805
O       -6.24226049       1.36060435       1.42436914
H       -6.50369499       1.32534119       2.34287997
9
Properties=species:S:1:pos:R:3 energy=-724.7764781593338 pbc="F F F"
C       -6.42153595       1.88297090      -1.57896822
C       -6.76902621       0.83672293      -0.67732263
H       -7.24650235       2.03974900      -2.29233031
H       -5.48559780       1.67060185      -2.12407922
H       -6.25924414       2.83539403      -1.01601521
C       -6.81193560       0.43597926       0.58299967
H       -7.20207145      -0.45761935       1.00664633
O       -6.24607007       1.36589293       1.43414815
H       -6.52135744       1.32335645       2.34953843
9
Properties=species:S:1:pos:R:3 energy=-724.7856268587345 pbc="F F F"
C       -6.42319425       1.87898140      -1.58231901
C       -6.76993074       0.83030615      -0.68158304
H       -7.25042554       2.05552806      -2.28801107
H       -5.49576818       1.66327603      -2.13938070
H       -6.24483041       2.82388502      -1.01186335
C       -6.80466129       0.44224480       0.58308656
H       -7.18601215      -0.45484735       1.00529951
O       -6.24905720       1.37251261       1.44372102
H       -6.53946125       1.32116128       2.35566709
9
Properties=species:S:1:pos:R:3 energy=-724.7927545716636 pbc="F F F"
C       -6.42471968       1.87531681      -1.58536884
C       -6.77098712       0.82349423      -0.68550041
H       -7.25394773       2.07115266      -2.28319210
H       -5.50623852       1.65606008      -2.15455236
H       -6.23036712       2.81222787      -1.00785396
C       -6.79779970       0.44845277       0.58293125
H       -7.17008541      -0.45274819       1.00379074
O       -6.25127509       1.38030807       1.45307174
H       -6.55792063       1.31878371       2.36129093
9
Properties=species:S:1:pos:R:3 energy=-724.7969522676453 pbc="F F F"
C       -6.42607192       1.87207767      -1.58814585
C       -6.77228409       0.81611530      -0.68913094
H       -7.25706320       2.08656242      -2.27791823
H       -5.51694967       1.64899109      -2.16953465
H       -6.21591796       2.80048673      -1.00399562
C       -6.79127531       0.45475788       0.58260987
H       -7.15435210      -0.45131882       1.00211320
O       -6.25277698       1.38912398       1.46218429
H       -6.57664976       1.31625175       2.36643494
9
Properties=species:S:1:pos:R:3 energy=-724.7969188868693 pbc="F F F"
C       -6.42721067       1.86936450      -1.59067823
C       -6.77391038       0.80799752      -0.69253087
H       -7.25976624       2.10169695      -2.27223427
H       -5.52784248       1.64210616      -2.18426805
H       -6.20154661       2.78872574      -1.00029692
C       -6.78501257       0.46131487       0.58219853
H       -7.13887311      -0.45055620       1.00026005
O       -6.25361607       1.39880504       1.47104266
H       -6.59556286       1.31359343       2.37112411
9
Properties=species:S:1:pos:R:3 energy=-724.7909471790136 pbc="F F F"
C       -6.42809560       1.86727782      -1.59299413
C       -6.77595474       0.79896903      -0.69575642
H       -7.26205114       2.11649587      -2.26618507
H       -5.53885781       1.63544241      -2.19869303
H       -6.18731677       2.77700904      -0.99676642
C       -6.77893595       0.46827843       0.58177336
H       -7.12370929      -0.45045728       0.99822446
O       -6.25384560       1.40919593       1.47963084
H       -6.61457411       1.31083675       2.37538342
9
Properties=species:S:1:pos:R:3 energy=-724.7768598743204 pbc="F F F"
C       -6.42868642       1.86591818      -1.59512173
C       -6.77850590       0.78885799      -0.69886381
H       -7.26391217       2.13089877      -2.25981545
H       -5.54993648       1.62903693      -2.21275007
H       -6.17329211       2.76540076      -0.99341271
C       -6.77296992       0.47580329       0.58141049
H       -7.10892152      -0.45101901       0.99599959
O       -6.25351877       1.42014132       1.48793283
H       -6.63359771       1.30800975       2.37923786
9
Properties=species:S:1:pos:R:3 energy=-724.751908597302 pbc="F F F"
C       -6.42894281       1.86538610      -1.59708920
C       -6.78165260       0.77749254      -0.70190925
H       -7.26534362       2.14484529      -2.25317025
H       -5.56101937       1.62292683      -2.22637963
H       -6.15953633       2.75396506      -0.99024436
C       -6.76703893       0.48404417       0.58118604
H       -7.09457067      -0.45223835       0.99357862
O       -6.25268881       1.43148592       1.49593261
H       -6.65254786       1.30514045       2.38271242
9
Properties=species:S:1:pos:R:3 energy=-724.7126486254646 pbc="F F F"
C       -6.42882446       1.86578210      -1.59892470
C       -6.78548357       0.76470084      -0.70494897
H       -7.26633979       2.15827502      -2.24629429
H       -5.57204731       1.61714922      -2.23952218
H       -6.14611311       2.74276607      -0.98726996
C       -6.76106745       0.49315577       0.58117614
H       -7.08071761      -0.45411225       0.99095471
O       -6.25140893       1.44307439       1.50361417
H       -6.67133877       1.30225685       2.38583208
9
Properties=species:S:1:pos:R:3 energy=-724.654800152299 pbc="F F F"
C       -6.42829107       1.86720672      -1.60065640
C       -6.79008756       0.75031102      -0.70803920
H       -7.26689495       2.17112758      -2.23923240
H       -5.58296115       1.61174119      -2.25211820
H       -6.13308613       2.73186792      -0.98449807
C       -6.75497994       0.50329282       0.58145691
H       -7.06742322      -0.45663767       0.98812102
O       -6.24973237       1.45475143       1.51096150
H       -6.68988462       1.29938698       2.38862184
