9
Properties=species:S:1:pos:R:3 energy=-723.2945151240502 pbc="F F F"
C       -6.40013976       1.92735799      -1.47776298
C       -6.70059820       0.99107229      -0.43312656
H       -7.16654243       1.83044370      -2.26868664
H       -5.39795455       1.75523382      -1.93082869
H       -6.41387773       2.96439381      -1.07731012
C       -7.04584025       0.19194604       0.44036401
H       -7.42395745      -0.59518416       1.02267738
O       -6.06514141       1.54802683       1.26222490
H       -6.34928922       1.31975767       2.14706571
