9
Properties=species:S:1:pos:R:3 energy=-724.8416681181226 pbc="F F F"
C       -7.07514200       0.65495800       1.06400100
C       -5.69546900       1.06081800       1.39239500
H       -7.63845500       0.35288200       1.96448500
H       -7.08869600      -0.19820000       0.37349600
H       -7.63338400       1.47492600       0.59401900
C       -4.84196200       1.20875600       2.37857800
H       -3.82854600       1.55987400       2.21736600
O       -5.02316200       0.96753600       3.76216600
H       -5.95123800       0.64481300       3.91879700
9
Properties=species:S:1:pos:R:3 energy=-724.8873551771925 pbc="F F F"
C       -7.07862188       0.65590996       1.05937825
C       -5.71145327       1.05336833       1.40829543
H       -7.64433835       0.32317393       1.94665084
H       -7.07580473      -0.17999241       0.34889003
H       -7.64597339       1.47841421       0.60378859
C       -4.84592720       1.20793514       2.38052606
H       -3.82203118       1.53817700       2.20551935
O       -5.02007433       0.99770849       3.76397482
H       -5.93182968       0.65166835       3.94827963
9
Properties=species:S:1:pos:R:3 energy=-724.9221214688142 pbc="F F F"
C       -7.08207539       0.65666850       1.05461960
C       -5.72734005       1.04672554       1.42417675
H       -7.64941430       0.29374230       1.92824858
H       -7.06308464      -0.16125642       0.32464491
H       -7.65874459       1.48127284       0.61363874
C       -4.84980138       1.20583567       2.38258631
H       -3.81716901       1.51642730       2.19450253
O       -5.01739377       1.02767469       3.76544750
H       -5.91103086       0.65927257       3.97743807
9
Properties=species:S:1:pos:R:3 energy=-724.947358632207 pbc="F F F"
C       -7.08549902       0.65724240       1.04973487
C       -5.74312650       1.04085738       1.44002137
H       -7.65369624       0.26460615       1.90930311
H       -7.05054627      -0.14201506       0.30077649
H       -7.67168154       1.48350647       0.62355647
C       -4.85361164       1.20255082       2.38476690
H       -3.81389657       1.49459527       2.18431529
O       -5.01509784       1.05742024       3.76660187
H       -5.88889839       0.66759932       4.00622664
9
Properties=species:S:1:pos:R:3 energy=-724.964351869677 pbc="F F F"
C       -7.08888925       0.65764043       1.04473391
C       -5.75880975       1.03573160       1.45581169
H       -7.65719752       0.23578454       1.88983930
H       -7.03820016      -0.12229137       0.27730058
H       -7.68476816       1.48511968       0.63352876
C       -4.85738507       1.19817382       2.38707596
H       -3.81215092       1.47265124       2.17495737
O       -5.01316403       1.08693082       3.76745577
H       -5.86548914       0.67662224       4.03459966
9
Properties=species:S:1:pos:R:3 energy=-724.9742836570041 pbc="F F F"
C       -7.09224255       0.65787138       1.03962656
C       -5.77438697       1.03131595       1.47153013
H       -7.65993151       0.20729653       1.86988203
H       -7.02605685      -0.10210838       0.25423301
H       -7.69798837       1.48611703       0.64354263
C       -4.86114876       1.19279789       2.38952165
H       -3.81186915       1.45056555       2.16642853
O       -5.01156988       1.11619208       3.76802701
H       -5.84085996       0.68631497       4.06251145
9
Properties=species:S:1:pos:R:3 energy=-724.9782358899197 pbc="F F F"
C       -7.09555542       0.65794403       1.03442265
C       -5.78985529       1.02757817       1.48715907
H       -7.66191158       0.17916116       1.84945619
H       -7.01412689      -0.08148914       0.23158961
H       -7.71132610       1.48650310       0.65358508
C       -4.86492981       1.18651627       2.39211213
H       -3.81298830       1.42830856       2.15872849
O       -5.01029289       1.14518969       3.76833345
H       -5.81506771       0.69665115       4.08991633
9
Properties=species:S:1:pos:R:3 energy=-724.9771894139174 pbc="F F F"
C       -7.09882433       0.65786716       1.02913203
C       -5.80521188       1.02448604       1.50268093
H       -7.66315111       0.15139748       1.82858666
H       -7.00242080      -0.06045667       0.20938620
H       -7.72476528       1.48628247       0.66364309
C       -4.86875530       1.17942218       2.39485552
H       -3.81544547       1.40585060       2.15185702
O       -5.00931058       1.17390931       3.76839291
H       -5.78816925       0.70760444       4.11676863
9
Properties=species:S:1:pos:R:3 energy=-724.9720229043376 pbc="F F F"
C       -7.10204576       0.65764954       1.02376453
C       -5.82045386       1.02200728       1.51807811
H       -7.66366346       0.12402454       1.80729832
H       -6.99094915      -0.03903402       0.18763861
H       -7.73828984       1.48545971       0.67370368
C       -4.87265232       1.17160886       2.39776000
H       -3.81917770       1.38316202       2.14581386
O       -5.00860047       1.20233659       3.76822322
H       -5.76022144       0.71914848       4.14302267
9
Properties=species:S:1:pos:R:3 energy=-724.9635106018089 pbc="F F F"
C       -7.10521619       0.65729997       1.01833000
C       -5.83557840       1.02010966       1.53333302
H       -7.66346200       0.09706140       1.78561604
H       -6.97972245      -0.01724421       0.16636267
H       -7.75188368       1.48403939       0.68375385
C       -4.87664798       1.16316953       2.40083369
H       -3.82412208       1.36021317       2.14059875
O       -5.00814006       1.23045719       3.76784222
H       -5.73128114       0.73125690       4.16863277
9
Properties=species:S:1:pos:R:3 energy=-724.9523206908528 pbc="F F F"
C       -7.10833211       0.65682721       1.01283827
C       -5.85058265       1.01876092       1.54842805
H       -7.66256010       0.07052711       1.76356472
H       -6.96875127       0.00488971       0.14557419
H       -7.76553076       1.48202609       0.69378059
C       -4.88076937       1.15419742       2.40408476
H       -3.83021568       1.33697439       2.13621143
O       -5.00790687       1.25825679       3.76726773
H       -5.70140520       0.74390336       4.19355325
9
Properties=species:S:1:pos:R:3 energy=-724.9390152128692 pbc="F F F"
C       -7.11139000       0.65624005       1.00729919
C       -5.86546374       1.01792882       1.56334562
H       -7.66097113       0.04444071       1.74116923
H       -6.95804612       0.02734471       0.12528902
H       -7.77921498       1.47942439       0.70377091
C       -4.88504356       1.14478576       2.40752134
H       -3.83739555       1.31341602       2.13265166
O       -5.00787842       1.28572104       3.76651760
H       -5.67065049       0.75706150       4.21773844
9
Properties=species:S:1:pos:R:3 energy=-724.9240525753759 pbc="F F F"
C       -7.11438633       0.65554727       1.00172258
C       -5.88021884       1.01758110       1.57806812
H       -7.65870846       0.01882126       1.71845445
H       -6.94761757       0.05009776       0.10552297
H       -7.79292027       1.47623885       0.71371181
C       -4.88949767       1.13502779       2.41115160
H       -3.84559878       1.28950840       2.12991918
O       -5.00803222       1.31283559       3.76560966
H       -5.63907387       0.77070497       4.24114264
9
Properties=species:S:1:pos:R:3 energy=-724.9077938227437 pbc="F F F"
C       -7.11731759       0.65475765       0.99611830
C       -5.89484508       1.01768552       1.59257797
H       -7.65578545      -0.00631218       1.69544526
H       -6.93747615       0.07312582       0.08629188
H       -7.80663056       1.47247406       0.72359028
C       -4.89415878       1.12501672       2.41498367
H       -3.85476242       1.26522190       2.12801373
O       -5.00834579       1.33958612       3.76456173
H       -5.60673218       0.78480740       4.26372020
9
Properties=species:S:1:pos:R:3 energy=-724.8905128938421 pbc="F F F"
C       -7.12018026       0.65387996       0.99049617
C       -5.90933962       1.01820983       1.60685756
H       -7.65221547      -0.03094058       1.67216655
H       -6.92763239       0.09640585       0.06761156
H       -7.82032978       1.46813459       0.73339334
C       -4.89905398       1.11484579       2.41902570
H       -3.86482356       1.24052683       2.12693505
O       -5.00879663       1.36595828       3.76339165
H       -5.57368230       0.79934244       4.28542542
9
Properties=species:S:1:pos:R:3 energy=-724.8724115350885 pbc="F F F"
C       -7.12297083       0.65292300       0.98486605
C       -5.92369960       1.01912178       1.62088930
H       -7.64801190      -0.05504487       1.64864320
H       -6.91809685       0.11991481       0.04949784
H       -7.83400185       1.46322500       0.74310798
C       -4.90421037       1.10460823       2.42328585
H       -3.87571926       1.21539357       2.12668291
O       -5.00936227       1.39193774       3.76211725
H       -5.53998107       0.81428374       4.30621263
9
Properties=species:S:1:pos:R:3 energy=-724.8536386593956 pbc="F F F"
C       -7.12568576       0.65189554       0.97923776
C       -5.93792218       1.02038912       1.63465560
H       -7.64318810      -0.07860600       1.62490008
H       -6.90888005       0.14362968       0.03196655
H       -7.84763069       1.45774988       0.75272120
C       -4.90965504       1.09439726       2.42777225
H       -3.88738659       1.18979243       2.12725703
O       -5.01002022       1.41751015       3.76075637
H       -5.50568537       0.82960494       4.32603616
9
Properties=species:S:1:pos:R:3 energy=-724.8343135704166 pbc="F F F"
C       -7.12832155       0.65080636       0.97362115
C       -5.95200450       1.02197960       1.64813885
H       -7.63775744      -0.10160494       1.60096209
H       -6.89999255       0.16752742       0.01503352
H       -7.86120024       1.45171381       0.76222000
C       -4.91541507       1.08430612       2.43249307
H       -3.89976261       1.16369378       2.12865717
O       -5.01074799       1.44266117       3.75932683
H       -5.47085204       0.84527968       4.34485032
9
Properties=species:S:1:pos:R:3 energy=-724.8145523612486 pbc="F F F"
C       -7.13087467       0.64966423       0.96802606
C       -5.96594372       1.02386097       1.66132146
H       -7.63173329      -0.12402261       1.57685409
H       -6.89144488       0.19158498      -0.00128542
H       -7.87469441       1.44512134       0.77159139
C       -4.92151758       1.07442804       2.43745644
H       -3.91278440       1.13706795       2.13088307
O       -5.01152310       1.46737647       3.75784648
H       -5.43553795       0.86128162       4.36260943
9
Properties=species:S:1:pos:R:3 energy=-724.7944962708287 pbc="F F F"
C       -7.13334161       0.64847795       0.96246232
C       -5.97973697       1.02600098       1.67418585
H       -7.62512902      -0.14583998       1.55260098
H       -6.88324759       0.21577934      -0.01697446
H       -7.88809714       1.43797707       0.78082236
C       -4.92798963       1.06485624       2.44267052
H       -3.92638903       1.10988530       2.13393447
O       -5.01232306       1.49164170       3.75633314
H       -5.39979995       0.87758439       4.37926782
9
Properties=species:S:1:pos:R:3 energy=-724.7743404449882 pbc="F F F"
C       -7.13571885       0.64725629       0.95693978
C       -5.99338141       1.02836739       1.68671440
H       -7.61795800      -0.16703799       1.52822762
H       -6.87541121       0.24008746      -0.03201777
H       -7.90139234       1.43028556       0.78989991
C       -4.93485834       1.05568395       2.44814346
H       -3.94051357       1.08211616       2.13781113
O       -5.01312539       1.51544254       3.75480465
H       -5.36369490       0.89416164       4.39477981
9
Properties=species:S:1:pos:R:3 energy=-724.7543611418454 pbc="F F F"
C       -7.13800286       0.64600803       0.95146827
C       -6.00687419       1.03092794       1.69888953
H       -7.61023359      -0.18759759       1.50375891
H       -6.86794629       0.26448631      -0.04639951
H       -7.91456395       1.42205139       0.79881105
C       -4.94215078       1.04700441       2.45388340
H       -3.95509508       1.05373087       2.14251279
O       -5.01390759       1.53876463       3.75327883
H       -5.32727967       0.91098701       4.40909973
9
Properties=species:S:1:pos:R:3 energy=-724.7349389177151 pbc="F F F"
C       -7.14019014       0.64474195       0.94605764
C       -6.02021245       1.03365039       1.71069363
H       -7.60196917      -0.20749972       1.47921973
H       -6.86086336       0.28895284      -0.06010387
H       -7.92759588       1.41327913       0.80754278
C       -4.94989406       1.03891084       2.45989848
H       -3.97007064       1.02469979       2.14803919
O       -5.01464720       1.56159364       3.75177353
H       -5.29061110       0.92803414       4.42218188
9
Properties=species:S:1:pos:R:3 energy=-724.7165747299767 pbc="F F F"
C       -7.14227716       0.64346684       0.94071772
C       -6.03339335       1.03650248       1.72210912
H       -7.59317810      -0.22672535       1.45463495
H       -6.85417297       0.31346402      -0.07311501
H       -7.94047207       1.40397335       0.81608210
C       -4.95811527       1.03149647       2.46619687
H       -3.98537732       0.99499326       2.15439007
O       -5.01532171       1.58391523       3.75030657
H       -5.25374606       0.94527669       4.43398060
9
Properties=species:S:1:pos:R:3 energy=-724.6998951216277 pbc="F F F"
C       -7.14426039       0.64219146       0.93545835
C       -6.04641403       1.03945197       1.73311840
H       -7.58387376      -0.24525541       1.43002946
H       -6.84788566       0.33799682      -0.08541711
H       -7.95317644       1.39413864       0.82441601
C       -4.96684149       1.02485453       2.47278670
H       -4.00095217       0.96458163       2.16156519
O       -5.01590864       1.60571507       3.74889579
H       -5.21674142       0.96268830       4.44445020
9
Properties=species:S:1:pos:R:3 energy=-724.6856420255323 pbc="F F F"
C       -7.14613633       0.64092461       0.93028938
C       -6.05927164       1.04246660       1.74370387
H       -7.57406951      -0.26307085       1.40542813
H       -6.84201196       0.36252820      -0.09699434
H       -7.96569292       1.38377957       0.83253150
C       -4.97609983       1.01907824       2.47967613
H       -4.01673228       0.93343523       2.16956429
O       -5.01638552       1.62697881       3.74755902
H       -5.17965401       0.98024260       4.45354501
9
Properties=species:S:1:pos:R:3 energy=-724.6746416893426 pbc="F F F"
C       -7.14790146       0.63967506       0.92522063
C       -6.07196333       1.04551414       1.75384794
H       -7.56377872      -0.28015263       1.38085585
H       -6.83656243       0.38703512      -0.10783089
H       -7.97800543       1.37290070       0.84041559
C       -4.98591736       1.01426085       2.48687331
H       -4.03265472       0.90152441       2.17838712
O       -5.01672984       1.64769211       3.74631409
H       -5.14254071       0.99791325       4.46121936
9
Properties=species:S:1:pos:R:3 energy=-724.667747477834 pbc="F F F"
C       -7.14955225       0.63845159       0.92026195
C       -6.08448624       1.04856232       1.76353300
H       -7.55301476      -0.29648170       1.35633751
H       -6.83154760       0.41149455      -0.11791091
H       -7.99009789       1.36150662       0.84805527
C       -4.99632120       1.01049557       2.49438637
H       -4.04865655       0.86881951       2.18803342
O       -5.01691913       1.66784063       3.74517884
H       -5.10545838       1.01567389       4.46742755
9
Properties=species:S:1:pos:R:3 energy=-724.6657507673642 pbc="F F F"
C       -7.15108519       0.63726298       0.91542318
C       -6.09683754       1.05157891       1.77274147
H       -7.54179100      -0.31203899       1.33189797
H       -6.82697801       0.43588346      -0.12721859
H       -8.00195423       1.34960190       0.85543754
C       -5.00733842       1.00787564       2.50222348
H       -4.06467483       0.83529089       2.19850293
O       -5.01693091       1.68741004       3.74417110
H       -5.06846387       1.03349816       4.47212392
9
Properties=species:S:1:pos:R:3 energy=-724.6692559102835 pbc="F F F"
C       -7.15249675       0.63611802       0.91071416
C       -6.10901436       1.05453164       1.78145575
H       -7.53012081      -0.32680546       1.30756213
H       -6.82286420       0.46017881      -0.13573809
H       -8.01355839       1.33719111       0.86254940
C       -5.01899612       1.00649429       2.51039277
H       -4.08064665       0.80090889       2.20979540
O       -5.01674268       1.70638599       3.74330869
H       -5.03161403       1.05135971       4.47526278
9
Properties=species:S:1:pos:R:3 energy=-724.6785117864749 pbc="F F F"
C       -7.15378368       0.63502524       0.90614441
C       -6.12101368       1.05738910       1.78965911
H       -7.51801793      -0.34076290       1.28335489
H       -6.81921619       0.48435751      -0.14345462
H       -8.02489457       1.32427949       0.86937825
C       -5.03132077       1.00644256       2.51890172
H       -4.09650910       0.76564514       2.22190948
O       -5.01633266       1.72475481       3.74260915
H       -4.99496541       1.06923205       4.47680060
9
Properties=species:S:1:pos:R:3 energy=-724.6930975259746 pbc="F F F"
C       -7.15494854       0.63398760       0.90171605
C       -6.13282842       1.06013863       1.79735498
H       -7.50550492      -0.35391220       1.25930182
H       -6.81603175       0.50839545      -0.15037678
H       -8.03595375       1.31088742       0.87592038
C       -5.04432447       1.00776142       2.52774194
H       -4.11219999       0.72950108       2.23481870
O       -5.01569525       1.74251793       3.74208276
H       -4.95856690       1.08708567       4.47674313
9
Properties=species:S:1:pos:R:3 energy=-724.7117446569132 pbc="F F F"
C       -7.15599973       0.63300250       0.89742385
C       -6.14444748       1.06278638       1.80456690
H       -7.49261312      -0.36627340       1.23542914
H       -6.81329646       0.53226747      -0.15653660
H       -8.04673368       1.29705044       0.88218103
C       -5.05800494       1.01044172       2.53688924
H       -4.12765782       0.69250798       2.24847143
O       -5.01484101       1.75969191       3.74173259
H       -4.92245976       1.10488801       4.47514542
9
Properties=species:S:1:pos:R:3 energy=-724.7323413603935 pbc="F F F"
C       -7.15694589       0.63206710       0.89326223
C       -6.15585956       1.06533930       1.81131929
H       -7.47937425      -0.37786736       1.21176309
H       -6.81099535       0.55594838      -0.16196714
H       -8.05723237       1.28280474       0.88816580
C       -5.07235928       1.01447214       2.54631872
H       -4.14282115       0.65469836       2.26281495
O       -5.01378119       1.77629395       3.74156140
H       -4.88668496       1.12260639       4.47206465
9
Properties=species:S:1:pos:R:3 energy=-724.7518772470999 pbc="F F F"
C       -7.15779568       0.63117854       0.88922561
C       -6.16705336       1.06780437       1.81763658
H       -7.46582004      -0.38871495       1.18832992
H       -6.80911344       0.57941297      -0.16670144
H       -8.06744786       1.26818653       0.89388030
C       -5.08738460       1.01984136       2.55600551
H       -4.15762850       0.61610477       2.27779657
O       -5.01252708       1.79234127       3.74157195
H       -4.85128343       1.14020815       4.46755801
9
Properties=species:S:1:pos:R:3 energy=-724.7664491598366 pbc="F F F"
C       -7.15855776       0.63033398       0.88530844
C       -6.17801761       1.07018853       1.82354319
H       -7.45198221      -0.39883703       1.16515589
H       -6.80763578       0.60263604      -0.17077256
H       -8.07737817       1.25323200       0.89933014
C       -5.10307801       1.02653808       2.56592470
H       -4.17201842       0.57675975       2.29336355
O       -5.01108993       1.80785107       3.74176698
H       -4.81629612       1.15766059       4.46168267
9
Properties=species:S:1:pos:R:3 energy=-724.7713521443718 pbc="F F F"
C       -7.15924076       0.62953057       0.88150513
C       -6.18874100       1.07249875       1.82906355
H       -7.43789248      -0.40825447       1.14226724
H       -6.80654740       0.62559239      -0.17421354
H       -8.08702134       1.23797734       0.90452093
C       -5.11943659       1.03455096       2.57605140
H       -4.18592945       0.53669584       2.30946319
O       -5.00948101       1.82284057       3.74214926
H       -4.78176397       1.17493104       4.45449583
9
Properties=species:S:1:pos:R:3 energy=-724.7612659702964 pbc="F F F"
C       -7.15985335       0.62876546       0.87781012
C       -6.19921224       1.07474200       1.83422207
H       -7.42358258      -0.41698812       1.11969022
H       -6.80583333       0.64825683      -0.17705743
H       -8.09637539       1.22245875       0.90945829
C       -5.13645746       1.04386869       2.58636074
H       -4.19930013       0.49594558       2.32604279
O       -5.00771159       1.83732699       3.74272153
H       -4.74772793       1.19198683       4.44605467
9
Properties=species:S:1:pos:R:3 energy=-724.730539316138 pbc="F F F"
C       -7.16040418       0.62803580       0.87421783
C       -6.20942005       1.07692522       1.83904318
H       -7.40908424      -0.42505886       1.09745108
H       -6.80547861       0.67060414      -0.17933729
H       -8.10543835       1.20671243       0.91414783
C       -5.15413771       1.05447995       2.59682781
H       -4.21206901       0.45454152       2.34304961
O       -5.00579293       1.85132752       3.74348657
H       -4.71422893       1.20879527       4.43641638
9
Properties=species:S:1:pos:R:3 energy=-724.6735637475078 pbc="F F F"
C       -7.16090189       0.62733874       0.87072270
C       -6.21935313       1.07905539       1.84355131
H       -7.39442917      -0.43248754       1.07557607
H       -6.80546826       0.69260914      -0.18108616
H       -8.11420825       1.19077457       0.91859515
C       -5.17247446       1.06637343       2.60742772
H       -4.22417462       0.41251620       2.36043096
O       -5.00373630       1.86485939       3.74444711
H       -4.68130793       1.22532368       4.42563814
9
Properties=species:S:1:pos:R:3 energy=-724.5852214351329 pbc="F F F"
C       -7.16135514       0.62667144       0.86731915
C       -6.22900020       1.08113946       1.84777087
H       -7.37964911      -0.43929504       1.05409143
H       -6.80578732       0.71424661      -0.18233710
H       -8.12268311       1.17468137       0.92280587
C       -5.19146479       1.07953781       2.61813560
H       -4.23555550       0.36990216       2.37813412
O       -5.00155296       1.87793981       3.74560592
H       -4.64900586       1.24153938       4.41377713
9
Properties=species:S:1:pos:R:3 energy=-724.4613889684986 pbc="F F F"
C       -7.16177257       0.62603105       0.86400162
C       -6.23834995       1.08318439       1.85172630
H       -7.36477577      -0.44550221       1.03302342
H       -6.80642083       0.73549137      -0.18312315
H       -8.13086098       1.15846903       0.92678559
C       -5.21110582       1.09396176       2.62892654
H       -4.24615021       0.32673194       2.39610638
O       -4.99925419       1.89058597       3.74696575
H       -4.61736368       1.25740971       4.40089054
9
Properties=species:S:1:pos:R:3 energy=-724.2994942254576 pbc="F F F"
C       -7.16216285       0.62541472       0.86076453
C       -6.24739111       1.08519714       1.85544202
H       -7.34984089      -0.45112992       1.01239829
H       -6.80735382       0.75631820      -0.18347737
H       -8.13873987       1.14217374       0.93053994
C       -5.23139464       1.10963397       2.63977567
H       -4.25589726       0.28303808       2.41429503
O       -4.99685124       1.90281511       3.74852935
H       -4.58642232       1.27290197       4.38703556
9
Properties=species:S:1:pos:R:3 energy=-724.0991766345511 pbc="F F F"
C       -7.16253461       0.62481960       0.85760231
C       -6.25611237       1.08718468       1.85894244
H       -7.33487618      -0.45619903       0.99224227
H       -6.80857132       0.77670191      -0.18343281
H       -8.14631782       1.12583170       0.93407451
C       -5.25232836       1.12654311       2.65065807
H       -4.26473522       0.23885312       2.43264734
O       -4.99435539       1.91464442       3.75029949
H       -4.55622273       1.28798348       4.37226937
9
Properties=species:S:1:pos:R:3 energy=-723.8632538252525 pbc="F F F"
C       -7.16289652       0.62424284       0.85450939
C       -6.26450244       1.08915396       1.86225200
H       -7.31991337      -0.46073041       0.97258163
H       -6.81005836       0.79661730      -0.18302250
H       -8.15359285       1.10947910       0.93739492
C       -5.27390409       1.14467789       2.66154888
H       -4.27260262       0.19420962       2.45111062
O       -4.99177790       1.92609112       3.75227892
H       -4.52680585       1.30262158       4.35664915
9
Properties=species:S:1:pos:R:3 energy=-723.5995934633268 pbc="F F F"
C       -7.16325723       0.62368160       0.85148020
C       -6.27255005       1.09111194       1.86539511
H       -7.30498419      -0.46474491       0.95344260
H       -6.81179998       0.81603917      -0.18227952
H       -8.16056299       1.09315214       0.94050678
C       -5.29611891       1.16402696       2.67242320
H       -4.27943799       0.14914010       2.46963214
O       -4.98913003       1.93717242       3.75447038
H       -4.49821264       1.31678358       4.34023210
9
Properties=species:S:1:pos:R:3 energy=-723.3250490350551 pbc="F F F"
C       -7.16362538       0.62313303       0.84850917
C       -6.28024388       1.09306559       1.86839620
H       -7.29012036      -0.46826341       0.93485144
H       -6.81378121       0.83494231      -0.18123689
H       -8.16722627       1.07688703       0.94341570
C       -5.31896994       1.18457902       2.68325613
H       -4.28517989       0.10367711       2.48815920
O       -4.98642305       1.94790553       3.75687665
H       -4.47048402       1.33043680       4.32307539
9
Properties=species:S:1:pos:R:3 energy=-723.0696625376393 pbc="F F F"
C       -7.16400962       0.62259427       0.84559074
C       -6.28757266       1.09502186       1.87127969
H       -7.27535360      -0.47130677       0.91683440
H       -6.81598709       0.85330153      -0.17992769
H       -8.17358072       1.06071994       0.94612730
C       -5.34245428       1.20632275       2.69402280
H       -4.28976685       0.05785319       2.50663909
O       -4.98366823       1.95830767       3.75950047
H       -4.44366095       1.34354856       4.30523621
9
Properties=species:S:1:pos:R:3 energy=-722.8671159771537 pbc="F F F"
C       -7.16441861       0.62206249       0.84271931
C       -6.29452509       1.09698772       1.87407001
H       -7.26071563      -0.47389586       0.89941773
H       -6.81840265       0.87109163      -0.17838495
H       -8.17962437       1.04468709       0.94864717
C       -5.36656902       1.22924683       2.70469830
H       -4.29313741       0.01170089       2.52501908
O       -4.98087683       1.96839604       3.76234460
H       -4.41778437       1.35608618       4.28677174
9
Properties=species:S:1:pos:R:3 energy=-722.7330254749245 pbc="F F F"
C       -7.16486100       0.62153482       0.83988934
C       -6.30108989       1.09897012       1.87679158
H       -7.24623820      -0.47605152       0.88262767
H       -6.82101291       0.88828740      -0.17664172
H       -8.18535524       1.02882466       0.95098094
C       -5.39131128       1.25333994       2.71525775
H       -4.29523012      -0.03474726       2.54324647
O       -4.97806013       1.97818785       3.76541179
H       -4.39289523       1.36801699       4.26773918
9
Properties=species:S:1:pos:R:3 energy=-722.6626346812255 pbc="F F F"
C       -7.16534544       0.62100844       0.83709524
C       -6.30725575       1.10097603       1.87946883
H       -7.23195300      -0.47779464       0.86649047
H       -6.82380293       0.90486365      -0.17473106
H       -8.19077137       1.01316885       0.95313421
C       -5.41667815       1.27859076       2.72567626
H       -4.29598352      -0.08145871       2.56126854
O       -4.97522938       1.98770032       3.76870480
H       -4.36903446       1.37930831       4.24819571
9
Properties=species:S:1:pos:R:3 energy=-722.6412913275902 pbc="F F F"
C       -7.16588059       0.62048048       0.83433145
C       -6.31301139       1.10301240       1.88212617
H       -7.21789178      -0.47914608       0.85103238
H       -6.82675772       0.92079517      -0.17268601
H       -8.19587079       0.99775586       0.95511260
C       -5.44266674       1.30498797       2.73592894
H       -4.29533614      -0.12840092       2.57903259
O       -4.97239585       1.99695066       3.77222639
H       -4.34624302       1.38992745       4.22819850
9
Properties=species:S:1:pos:R:3 energy=-722.65167286057 pbc="F F F"
C       -7.16647508       0.61994810       0.83159239
C       -6.31834551       1.10508621       1.88478803
H       -7.20408626      -0.48012668       0.83627966
H       -6.82986232       0.93605677      -0.17053963
H       -8.20065152       0.98262189       0.95692171
C       -5.46927415       1.33252026       2.74599090
H       -4.29322652      -0.17554135       2.59648589
O       -4.96957081       2.00595608       3.77597930
H       -4.32456184       1.39984174       4.20780475
9
Properties=species:S:1:pos:R:3 energy=-722.6779062249169 pbc="F F F"
C       -7.16713758       0.61940845       0.82887249
C       -6.32324683       1.10720440       1.88747884
H       -7.19056815      -0.48075734       0.82225854
H       -6.83310177       0.95062324      -0.16832497
H       -8.20511158       0.96780312       0.95856716
C       -5.49649747       1.36117631       2.75583725
H       -4.28959322      -0.22284746       2.61357574
O       -4.96676552       2.01473379       3.77996630
H       -4.30403187       1.40901850       4.18707164
9
Properties=species:S:1:pos:R:3 energy=-722.7082606506341 pbc="F F F"
C       -7.16787674       0.61885868       0.82616619
C       -6.32770406       1.10937393       1.89022302
H       -7.17736919      -0.48105889       0.80899528
H       -6.83646110       0.96446938      -0.16607507
H       -8.20924902       0.95333577       0.96005456
C       -5.52433382       1.39094479       2.76544309
H       -4.28437476      -0.27028670       2.63024943
O       -4.96399125       2.02330099       3.78419015
H       -4.28469406       1.41742505       4.16605636
9
Properties=species:S:1:pos:R:3 energy=-722.7354592606719 pbc="F F F"
C       -7.16870120       0.61829594       0.82346791
C       -6.33170590       1.11160178       1.89304498
H       -7.16452110      -0.48105222       0.79651612
H       -6.83992534       0.97757000      -0.16382299
H       -8.21306186       0.93925602       0.96138951
C       -5.55278030       1.42181440       2.77478355
H       -4.27750970      -0.31782654       2.64645424
O       -4.96125927       2.03167491       3.78865358
H       -4.26658934       1.42502871       4.14481608
9
Properties=species:S:1:pos:R:3 energy=-722.7552487312946 pbc="F F F"
C       -7.16961962       0.61771740       0.82077209
C       -6.33524106       1.11389490       1.89596916
H       -7.15205560      -0.48075818       0.78484732
H       -6.84347952       0.98989989      -0.16160177
H       -8.21654812       0.92560007       0.96257763
C       -5.58183400       1.45377381       2.78383373
H       -4.26893657      -0.36543443       2.66213746
O       -4.95858084       2.03987276       3.79335937
H       -4.24975867       1.43179680       4.12340801
9
Properties=species:S:1:pos:R:3 energy=-722.7649661394007 pbc="F F F"
C       -7.17064065       0.61712019       0.81807314
C       -6.33829825       1.11626024       1.89901998
H       -7.14000442      -0.48019764       0.77401513
H       -6.84710869       1.00143385      -0.15944447
H       -8.21970585       0.91240411       0.96362453
C       -5.61149204       1.48681170       2.79256874
H       -4.25859391      -0.41307783       2.67724638
O       -4.95596723       2.04791174       3.79831027
H       -4.23424298       1.43769665       4.10188931
9
Properties=species:S:1:pos:R:3 energy=-722.7626439875056 pbc="F F F"
C       -7.17177293       0.61650147       0.81536550
C       -6.34086618       1.11870477       1.90222187
H       -7.12839928      -0.47939146       0.76404578
H       -6.85079786       1.01214668      -0.15738414
H       -8.22253305       0.89970435       0.96453582
C       -5.64175150       1.52091676       2.80096368
H       -4.24642026      -0.46072420       2.69172828
O       -4.95342971       2.05580906       3.80350903
H       -4.22008323       1.44269557       4.08031718
9
Properties=species:S:1:pos:R:3 energy=-722.7465009743473 pbc="F F F"
C       -7.17302514       0.61585839       0.81264361
C       -6.34293356       1.12123546       1.90559923
H       -7.11727190      -0.47836051       0.75496553
H       -6.85453208       1.02201318      -0.15545382
H       -8.22502777       0.88753697       0.96531710
C       -5.67260950       1.55607766       2.80899368
H       -4.23235417      -0.50834099       2.70553045
O       -4.95097953       2.06358194       3.80895841
H       -4.20732035       1.44676089       4.05874880
