9
Properties=species:S:1:pos:R:3 energy=-722.6412913275902 pbc="F F F"
C       -7.16588059       0.62048048       0.83433145
C       -6.31301139       1.10301240       1.88212617
H       -7.21789178      -0.47914608       0.85103238
H       -6.82675772       0.92079517      -0.17268601
H       -8.19587079       0.99775586       0.95511260
C       -5.44266674       1.30498797       2.73592894
H       -4.29533614      -0.12840092       2.57903259
O       -4.97239585       1.99695066       3.77222639
H       -4.34624302       1.38992745       4.22819850
