22
Properties=species:S:1:pos:R:3 energy=-2167.9350251133383 pbc="F F F"
O        0.11169729       2.53564854       2.53432493
C       -0.02042960       2.02458107       1.48083244
C        0.73936527       2.16357761       0.17435696
C        1.89038496       1.15483320       0.06433229
C        1.43275426      -0.28728953       0.32476207
C        0.34906641      -0.81214698      -0.61380056
H        0.24897975      -1.91536421      -0.52098937
C        0.53006536      -0.36895313      -2.06175494
O        0.01670868       0.63368407      -2.50091348
C        1.39131952      -1.27200998      -2.89652429
H       -1.05911240       0.98814641       1.38723939
H       -0.02283915       1.90926182      -0.60216044
H        1.12669264       3.15995143      -0.14695443
H        2.37394723       1.21333932      -0.94744416
H        2.70695533       1.39900578       0.77661649
H        2.30698524      -0.97529441       0.30625492
H        1.02834406      -0.35890762       1.36311676
H        0.86467637      -2.20547723      -3.14011404
H        1.64718594      -0.79739240      -3.85590294
H        2.32594991      -1.53959715      -2.39066831
O       -1.35557879      -0.36270057       0.94321497
O       -1.01049627      -0.25064002      -0.30069626
