5
Properties=species:S:1:pos:R:3 energy=-7192.853433941083 pbc="F F F"
O        2.26587900       0.12446300       0.20472000
C        3.23891400       0.45025100       0.77087800
O        4.20880500       0.77496200       1.33516300
O       -0.43878000      -0.76849100      -1.34747500
H        0.38200900      -0.49882600      -0.87868100
