17
Properties=species:S:1:pos:R:3 energy=-10461.46381751637 pbc="F F F"
C        1.03318700      -0.23991000       0.11956400
H        0.38786600       0.55437600       0.43007700
H        0.59039600      -1.06303300      -0.39859500
C        2.48596800      -0.19039000       0.33461800
C        2.94885400       0.90902400       1.29963900
C        2.62556200       0.56737800       2.73166700
O        3.44588300       0.27319600       3.56384700
C        1.11939800       0.63289400       3.10032400
O        0.52880300       1.68270200       3.06347900
C        0.52624900      -0.68008000       3.48358900
H        2.86649600      -1.17953800       0.67723000
H        2.98304900      -0.02856500      -0.65426600
H        4.04480200       1.06352600       1.19858900
H        2.48223400       1.88362700       1.03481200
H        0.51361900      -1.38100900       2.63504000
H        1.09982400      -1.16059100       4.29294500
H       -0.51155000      -0.57000100       3.83407600
