22
Properties=species:S:1:pos:R:3 energy=-17652.402430550264 pbc="F F F"
O       -0.01227192      -3.65904248       0.76355622
O       -1.35376155      -3.89975074       0.03763271
C       -1.92866527      -3.06058740      -0.61483531
O       -1.93594336      -1.85813866      -1.04236938
C       -0.80765637      -0.92807848      -0.78809862
C       -0.62632531      -0.71776035       0.70616133
C        0.38245172       0.37882731       1.07820628
C        1.13447035       0.95427974      -0.09690698
O        2.19490648       0.55323116      -0.49979232
C        0.45154361       2.17408012      -0.77445319
O       -0.50144805       2.02086750      -1.49669530
C        1.08602138       3.48280799      -0.45095323
H        0.13726789      -4.54446595       1.13848988
H        0.08380653      -1.34871679      -1.28313114
H       -1.18737168      -0.03357610      -1.33105975
H       -1.60843248      -0.48847773       1.16935616
H       -0.29359107      -1.68522542       1.17132278
H       -0.13592899       1.18538435       1.63572338
H        1.12548708      -0.04980907       1.79103357
H        1.11169568       3.68692972       0.62795885
H        2.12944486       3.51696172      -0.80927641
H        0.55430047       4.32025957      -0.93186952
