6
Properties=species:S:1:pos:R:3 energy=-3149.227897306569 pbc="F F F"
C        0.92899100      -0.05094600      -0.05953400
C        0.44046100      -1.23691900       0.64951100
C        0.03728700      -2.21735600       1.23600600
H        0.57377400       0.86381300       0.42881500
H        0.57383700      -0.04819900      -1.09650800
H        2.02487900      -0.03249200      -0.07054400
