9
Properties=species:S:1:pos:R:3 energy=-723.0444745474495 pbc="F F F"
C       -8.09844016       1.15154480      -0.00481052
C       -6.66480673       1.14579908      -0.04031131
H       -8.47943309       0.86513319       0.99118069
H       -8.53675081       0.44738061      -0.73183053
H       -8.51178314       2.14951420      -0.23040014
C       -5.45941392       1.14469947      -0.04684224
H       -4.43031356       1.14663146      -0.03609019
O       -5.50938193       2.25421339       6.79870273
H       -4.71959666       2.05612380       7.34119150
9
Properties=species:S:1:pos:R:3 energy=-723.0429760349439 pbc="F F F"
C       -8.09320047       1.15666425       0.01043346
C       -6.66113637       1.15643002      -0.02235849
H       -8.47283313       0.81577851       0.98851112
H       -8.52336006       0.48809561      -0.74894681
H       -8.51285366       2.15364927      -0.16577255
C       -5.45675864       1.15032924      -0.02725012
H       -4.42904504       1.14389412      -0.01452625
O       -5.52590039       2.24513383       6.73925793
H       -4.73483223       2.05106514       7.28144170
9
Properties=species:S:1:pos:R:3 energy=-723.0395881885206 pbc="F F F"
C       -8.08802569       1.16154531       0.02594494
C       -6.65727731       1.16696453      -0.00419712
H       -8.46583234       0.76805960       0.98433191
H       -8.51052585       0.52939834      -0.76408077
H       -8.51435711       2.15619529      -0.10142961
C       -5.45379241       1.15589801      -0.00696041
H       -4.42732576       1.14107533       0.00697077
O       -5.54253693       2.23594607       6.67912652
H       -4.75024660       2.04595752       7.22108376
9
Properties=species:S:1:pos:R:3 energy=-723.0352365909673 pbc="F F F"
C       -8.08291004       1.16620036       0.04171365
C       -6.65324045       1.17739259       0.01418291
H       -8.45844082       0.72199139       0.97869672
H       -8.49823425       0.57123747      -0.77724247
H       -8.51625828       2.15717423      -0.03742869
C       -5.45053282       1.16139899       0.01398722
H       -4.42518212       1.13818717       0.02840513
O       -5.55928840       2.22665508       6.61833684
H       -4.76583282       2.04080273       7.16013868
9
Properties=species:S:1:pos:R:3 energy=-723.0306002035757 pbc="F F F"
C       -8.07784774       1.17064178       0.05772935
C       -6.64903669       1.18770419       0.03279168
H       -8.45066865       0.67758879       0.97165925
H       -8.48647132       0.61356166      -0.78844198
H       -8.51852196       2.15660807       0.02617282
C       -5.44699745       1.16682536       0.03555310
H       -4.42264055       1.13524176       0.04978113
O       -5.57615168       2.21726581       6.55691721
H       -4.78158396       2.03560257       7.09862742
9
Properties=species:S:1:pos:R:3 energy=-723.0261417219449 pbc="F F F"
C       -8.07283302       1.17488196       0.07398179
C       -6.64467694       1.19788932       0.05163933
H       -8.44252592       0.63486672       0.96327318
H       -8.47522314       0.65631959      -0.79768936
H       -8.52111294       2.15451880       0.08931753
C       -5.44320390       1.17217033       0.05769757
H       -4.41972745       1.13225120       0.07110304
O       -5.59312363       2.20778325       6.49489595
H       -4.79749306       2.03035883       7.03657097
9
Properties=species:S:1:pos:R:3 energy=-723.0221376195528 pbc="F F F"
C       -8.06786009       1.17893327       0.09046070
C       -6.64017210       1.20793797       0.07073595
H       -8.43402272       0.59384011       0.95359218
H       -8.46447578       0.69945993      -0.80499469
H       -8.52399602       2.15092838       0.15194806
C       -5.43916976       1.17742709       0.08038096
H       -4.41646925       1.12922760       0.09237514
O       -5.61020112       2.19821234       6.43230139
H       -4.81355317       2.02507331       6.97399030
9
Properties=species:S:1:pos:R:3 energy=-723.0187084852863 pbc="F F F"
C       -8.06292318       1.18280809       0.10715584
C       -6.63553306       1.21784012       0.09009164
H       -8.42516913       0.55452386       0.94266994
H       -8.45421532       0.74293135      -0.81036802
H       -8.52713598       2.14585880       0.21400702
C       -5.43491261       1.18258884       0.10356361
H       -4.41289235       1.12618305       0.11360170
O       -5.62738102       2.18855807       6.36916185
H       -4.82975735       2.01974781       6.91090640
9
Properties=species:S:1:pos:R:3 energy=-723.0158493962235 pbc="F F F"
C       -8.05801652       1.18651881       0.12405696
C       -6.63077074       1.22758576       0.10971652
H       -8.41597523       0.51693291       0.93056014
H       -8.44442783       0.78668252      -0.81381942
H       -8.53049762       2.13933204       0.27543704
C       -5.43045005       1.18764878       0.12720584
H       -4.40902318       1.12312967       0.13478701
O       -5.64466019       2.17882538       6.30550567
H       -4.84609864       2.01438412       6.84734023
9
Properties=species:S:1:pos:R:3 energy=-723.0134449394288 pbc="F F F"
C       -8.05313432       1.19007781       0.14115380
C       -6.62589604       1.23716487       0.12962069
H       -8.40645112       0.48108217       0.91731646
H       -8.43509938       0.83066210      -0.81535895
H       -8.53404572       2.13137008       0.33618071
C       -5.42579967       1.19260011       0.15126799
H       -4.40488814       1.12007956       0.15593535
O       -5.66203550       2.16901926       6.24136116
H       -4.86257010       2.00898403       6.78331279
9
Properties=species:S:1:pos:R:3 energy=-723.0113552218876 pbc="F F F"
C       -8.04827082       1.19349746       0.15843610
C       -6.62091986       1.24656745       0.14981426
H       -8.39660688       0.44698657       0.90299258
H       -8.42621604       0.87481878      -0.81499669
H       -8.53774508       2.12199488       0.39618066
C       -5.42097905       1.19743602       0.17571039
H       -4.40051366       1.11704482       0.17705098
O       -5.67950381       2.15914466       6.17675665
H       -4.87916479       2.00354935       6.71884505
9
Properties=species:S:1:pos:R:3 energy=-723.009358425902 pbc="F F F"
C       -8.04342022       1.19679015       0.17589362
C       -6.61585311       1.25578347       0.17030733
H       -8.38645259       0.41466101       0.88764218
H       -8.41776388       0.91910122      -0.81274270
H       -8.54156050       2.11122844       0.45537951
C       -5.41600580       1.20214972       0.20049339
H       -4.39592615       1.11403756       0.19813820
O       -5.69706200       2.14920655       6.11172047
H       -4.89587575       1.99808187       6.65395799
9
Properties=species:S:1:pos:R:3 energy=-723.0072300139008 pbc="F F F"
C       -8.03857676       1.19996826       0.19351610
C       -6.61070667       1.26480293       0.19111002
H       -8.37599835       0.38412043       0.87131895
H       -8.40972899       0.96345810      -0.80860705
H       -8.54545676       2.09909274       0.51371987
C       -5.41089748       1.20673439       0.22557730
H       -4.39115202       1.11106987       0.21920129
O       -5.71470693       2.13920990       6.04628094
H       -4.91269604       1.99258338       6.58867258
9
Properties=species:S:1:pos:R:3 energy=-723.0047530175798 pbc="F F F"
C       -8.03373466       1.20304417       0.21129329
C       -6.60549147       1.27361581       0.21223242
H       -8.36525424       0.35537973       0.85407656
H       -8.40209742       1.00783808      -0.80259980
H       -8.54939865       2.08560974       0.57114434
C       -5.40567171       1.21118325       0.25092247
H       -4.38621769       1.10815388       0.24024451
O       -5.73243546       2.12915967       5.98046640
H       -4.92961870       1.98705568       6.52300980
9
Properties=species:S:1:pos:R:3 energy=-723.0017231423433 pbc="F F F"
C       -8.02888813       1.20603026       0.22921494
C       -6.60021840       1.28221210       0.23368465
H       -8.35423035       0.32845385       0.83596869
H       -8.39485526       1.05218983      -0.79473101
H       -8.55335096       2.07080142       0.62759556
C       -5.40034606       1.21548947       0.27648922
H       -4.38114957       1.10530167       0.26127215
O       -5.75024446       2.11906083       5.91430515
H       -4.94663680       1.98150057       6.45699064
9
Properties=species:S:1:pos:R:3 energy=-722.9979837043244 pbc="F F F"
C       -8.02403141       1.20893891       0.24727079
C       -6.59489837       1.29058179       0.25547681
H       -8.34293676       0.30335770       0.81704903
H       -8.38798857       1.09646203      -0.78501076
H       -8.55727849       2.05468978       0.68301613
C       -5.39493813       1.21964628       0.30223790
H       -4.37597409       1.10252535       0.28228848
O       -5.76813080       2.10891833       5.84782554
H       -4.96374338       1.97591983       6.39063607
9
Properties=species:S:1:pos:R:3 energy=-722.9934426185762 pbc="F F F"
C       -8.01915872       1.21178250       0.26545059
C       -6.58954227       1.29871485       0.27761901
H       -8.33138356       0.28010620       0.79737126
H       -8.38148342       1.14060334      -0.77344911
H       -8.56114603       2.03729678       0.73734866
C       -5.38946551       1.22364685       0.32812883
H       -4.37071764       1.09983703       0.30329780
O       -5.78609135       2.09873716       5.78105588
H       -4.98093149       1.97031528       6.32396708
9
Properties=species:S:1:pos:R:3 energy=-722.9880133146637 pbc="F F F"
C       -8.01426427       1.21457341       0.28374409
C       -6.58416102       1.30660129       0.30012135
H       -8.31958083       0.25871427       0.77698906
H       -8.37532590       1.18456245      -0.76005613
H       -8.56491837       2.01864440       0.79053578
C       -5.38394578       1.22748439       0.35412234
H       -4.36540666       1.09724882       0.32430437
O       -5.80412297       2.08852227       5.71402451
H       -4.99819419       1.96468870       6.25700463
9
Properties=species:S:1:pos:R:3 energy=-722.9817632115116 pbc="F F F"
C       -8.00934230       1.21732403       0.30214103
C       -6.57876551       1.31423108       0.32299394
H       -8.30753867       0.23919683       0.75595611
H       -8.36950207       1.22828800      -0.74484187
H       -8.56856031       1.99875463       0.84252009
C       -5.37839654       1.23115210       0.38017878
H       -4.36006755       1.09477281       0.34531247
O       -5.82222253       2.07827863       5.64675974
H       -5.01552453       1.95904188       6.18976971
9
Properties=species:S:1:pos:R:3 energy=-722.9747101540454 pbc="F F F"
C       -8.00438702       1.22004673       0.32063116
C       -6.57336665       1.32159422       0.34624689
H       -8.29526716       0.22156881       0.73432609
H       -8.36399800       1.27172869      -0.72781642
H       -8.57203662       1.97764943       0.89324422
C       -5.37283537       1.23464317       0.40625847
H       -4.35472673       1.09242111       0.36632638
O       -5.84038689       2.06801121       5.57928990
H       -5.03291556       1.95337663       6.12228329
9
Properties=species:S:1:pos:R:3 energy=-722.9669485179747 pbc="F F F"
C       -7.99939265       1.22275389       0.33920423
C       -6.56797533       1.32868068       0.36989031
H       -8.28277638       0.20584511       0.71215268
H       -8.35879977       1.31483318      -0.70898982
H       -8.57531211       1.95535080       0.94265078
C       -5.36727988       1.23795080       0.43232175
H       -4.34941062       1.09020583       0.38735039
O       -5.85861292       2.05772497       5.51164332
H       -5.05036034       1.94769474       6.05456636
9
Properties=species:S:1:pos:R:3 energy=-722.9586673484696 pbc="F F F"
C       -7.99435343       1.22545791       0.35784998
C       -6.56260247       1.33548046       0.39393430
H       -8.27007643       0.19204066       0.68948956
H       -8.35389345       1.35755013      -0.68837216
H       -8.57835156       1.93188070       0.99068237
C       -5.36174764       1.24106820       0.45832895
H       -4.34414562       1.08813906       0.40838876
O       -5.87689750       2.04742487       5.44384833
H       -5.06785191       1.94199801       5.98663990
9
Properties=species:S:1:pos:R:3 energy=-722.9500708161439 pbc="F F F"
C       -7.98926357       1.22817114       0.37655817
C       -6.55725897       1.34198355       0.41838896
H       -8.25717739       0.18017038       0.66639042
H       -8.34926511       1.39982823      -0.66597349
H       -8.58111977       1.90726112       1.03728163
C       -5.35625624       1.24398855       0.48424040
H       -4.33895816       1.08623292       0.42944579
O       -5.89523747       2.03711588       5.37593324
H       -5.08538332       1.93628823       5.91852488
9
Properties=species:S:1:pos:R:3 energy=-722.9413945068007 pbc="F F F"
C       -7.98411729       1.23090599       0.39531854
C       -6.55195572       1.34817992       0.44326441
H       -8.24408934       0.17024919       0.64290893
H       -8.34490082       1.44161614      -0.64180389
H       -8.58358153       1.88151403       1.08239115
C       -5.35082328       1.24670505       0.51001644
H       -4.33387465       1.08449951       0.45052574
O       -5.91362972       2.02680298       5.30792639
H       -5.10294764       1.93056719       5.85024227
9
Properties=species:S:1:pos:R:3 energy=-722.932886429847 pbc="F F F"
C       -7.97890882       1.23367482       0.41412083
C       -6.54670364       1.35405957       0.46857075
H       -8.23082237       0.16229202       0.61909878
H       -8.34078666       1.48286253      -0.61587341
H       -8.58570163       1.85466142       1.12595357
C       -5.34546635       1.24921091       0.53561740
H       -4.32892151       1.08295092       0.47163289
O       -5.93207111       2.01649111       5.23985610
H       -5.12053791       1.92483670       5.78181307
9
Properties=species:S:1:pos:R:3 energy=-722.9247909932452 pbc="F F F"
C       -7.97363239       1.23649002       0.43295479
C       -6.54151362       1.35961248       0.49431809
H       -8.21738657       0.15631377       0.59501365
H       -8.33690870       1.52351607      -0.58819212
H       -8.58744486       1.82672526       1.16791148
C       -5.34020304       1.25149932       0.56100362
H       -4.32412514       1.08159928       0.49277154
O       -5.95055850       2.00618526       5.17175070
H       -5.13814718       1.91909854       5.71325824
9
Properties=species:S:1:pos:R:3 energy=-722.9173673116039 pbc="F F F"
C       -7.96828220       1.23936397       0.45181018
C       -6.53639657       1.36482864       0.52051653
H       -8.20379203       0.15232937       0.57070722
H       -8.33325301       1.56352544      -0.55877010
H       -8.58877601       1.79772753       1.20820751
C       -5.33505093       1.25356348       0.58613542
H       -4.31951197       1.08045667       0.51394594
O       -5.96908877       1.99589038       5.10363851
H       -5.15576851       1.91335452       5.64459877
9
Properties=species:S:1:pos:R:3 energy=-722.9107946577609 pbc="F F F"
C       -7.96285249       1.24230905       0.47067673
C       -6.53136339       1.36969803       0.54717619
H       -8.19004883       0.15035373       0.54623317
H       -8.32980567       1.60283930      -0.52761740
H       -8.58965988       1.76769021       1.24678427
C       -5.33002762       1.25539658       0.61097314
H       -4.31510841       1.07953521       0.53516039
O       -5.98765877       1.98561144       5.03554785
H       -5.17339495       1.90760644       5.57585564
9
Properties=species:S:1:pos:R:3 energy=-722.9052392622575 pbc="F F F"
C       -7.95733748       1.24533765       0.48954420
C       -6.52642499       1.37421065       0.57430716
H       -8.17616705       0.15040179       0.52164517
H       -8.32655274       1.64140633      -0.49474409
H       -8.59006125       1.73663528       1.28358438
C       -5.32515069       1.25699183       0.63547712
H       -4.31094088       1.07884700       0.55641916
O       -6.00626537       1.97535340       4.96750706
H       -5.19101954       1.90185607       5.50704982
9
Properties=species:S:1:pos:R:3 energy=-722.9007938244151 pbc="F F F"
C       -7.95173140       1.24846213       0.50840232
C       -6.52159226       1.37835648       0.60191956
H       -8.16215680       0.15248846       0.49699692
H       -8.32348030       1.67917519      -0.46016024
H       -8.58994492       1.70458471       1.31855045
C       -5.32043775       1.25834242       0.65960768
H       -4.30703579       1.07840414       0.57772653
O       -6.02490545       1.96512124       4.89954446
H       -5.20863535       1.89610523       5.43820229
9
Properties=species:S:1:pos:R:3 energy=-722.8974634347655 pbc="F F F"
C       -7.94602881       1.25169426       0.52724081
C       -6.51687588       1.38212598       0.63002334
H       -8.14802790       0.15662787       0.47234187
H       -8.32057464       1.71609503      -0.42387691
H       -8.58927680       1.67156131       1.35162642
C       -5.31590613       1.25944165       0.68332535
H       -4.30341853       1.07821827       0.59908659
O       -6.04357589       1.95491991       4.83168840
H       -5.22623541       1.89035572       5.36933412
9
Properties=species:S:1:pos:R:3 energy=-722.8950927352438 pbc="F F F"
C       -7.94023247       1.25503123       0.54604815
C       -6.51228136       1.38552071       0.65862517
H       -8.13378465       0.16281619       0.44772831
H       -8.31782731       1.75212584      -0.38592815
H       -8.58804860       1.63760676       1.38278657
C       -5.31156792       1.26028500       0.70659466
H       -4.30009103       1.07829020       0.62049905
O       -6.06227434       1.94475444       4.76396790
H       -5.24381234       1.88460963       5.30046831
9
Properties=species:S:1:pos:R:3 energy=-722.8933793127162 pbc="F F F"
C       -7.93435327       1.25845570       0.56481169
C       -6.50780900       1.38855328       0.68772840
H       -8.11942579       0.17103160       0.42319938
H       -8.31523507       1.78723845      -0.34637101
H       -8.58627782       1.60278164       1.41203557
C       -5.30742986       1.26087017       0.72938425
H       -4.29703172       1.07860991       0.64195927
O       -6.08099913       1.93462988       4.69641260
H       -5.26135835       1.87886935       5.23162983
9
Properties=species:S:1:pos:R:3 energy=-722.8919803926917 pbc="F F F"
C       -7.92840249       1.26194970       0.58351869
C       -6.50345890       1.39123679       0.71733624
H       -8.10494982       0.18125150       0.39879796
H       -8.31279490       1.82140418      -0.30526352
H       -8.58398308       1.56714736       1.43937938
C       -5.30349849       1.26119496       0.75166290
H       -4.29421802       1.07916693       0.66346240
O       -6.09974866       1.92455131       4.62905221
H       -5.27886565       1.87313727       5.16284372
9
Properties=species:S:1:pos:R:3 energy=-722.8904621069431 pbc="F F F"
C       -7.92239138       1.26549526       0.60215642
C       -6.49923113       1.39358435       0.74745191
H       -8.09035523       0.19345330       0.37456698
H       -8.31050380       1.85459432      -0.26266372
H       -8.58118302       1.53076530       1.46482398
C       -5.29978034       1.26125715       0.77339939
H       -4.29162735       1.07995077       0.68500360
O       -6.11852132       1.91452378       4.56191642
H       -5.29632642       1.86741578       5.09413503
9
Properties=species:S:1:pos:R:3 energy=-722.8883965829777 pbc="F F F"
C       -7.91633120       1.26907440       0.62071215
C       -6.49512580       1.39560905       0.77807860
H       -8.07564052       0.20761438       0.35054933
H       -8.30835877       1.88678018      -0.21862965
H       -8.57789626       1.49369687       1.48837534
C       -5.29628194       1.26105452       0.79456252
H       -4.28923713       1.08095096       0.70657801
O       -6.13731549       1.90455236       4.49503491
H       -5.31373287       1.86170727       5.02552878
9
Properties=species:S:1:pos:R:3 energy=-722.8853294596346 pbc="F F F"
C       -7.91023323       1.27266915       0.63917315
C       -6.49114298       1.39732399       0.80921953
H       -8.06080420       0.22371216       0.32678793
H       -8.30635680       1.91793308      -0.17321934
H       -8.57414142       1.45600347       1.51003943
C       -5.29300982       1.26058488       0.81512106
H       -4.28702479       1.08215700       0.72818081
O       -6.15612956       1.89464211       4.42843737
H       -5.33107720       1.85601415       4.95705004
9
Properties=species:S:1:pos:R:3 energy=-722.880793115199 pbc="F F F"
C       -7.90410872       1.27626154       0.65752670
C       -6.48728278       1.39874228       0.84087791
H       -8.04584474       0.24172404       0.30332567
H       -8.30449487       1.94802432      -0.12649083
H       -8.56993712       1.41774650       1.52982222
C       -5.28997052       1.25984600       0.83504382
H       -4.28496774       1.08355842       0.74980715
O       -6.17496192       1.88479810       4.36215351
H       -5.34835159       1.85033880       4.88872385
9
Properties=species:S:1:pos:R:3 energy=-722.8743040605481 pbc="F F F"
C       -7.89796893       1.27983359       0.67576006
C       -6.48354527       1.39987703       0.87305696
H       -8.03076066       0.26162741       0.28020546
H       -8.30276999       1.97702520      -0.07850216
H       -8.56530200       1.37898734       1.54772968
C       -5.28717056       1.25883568       0.85429958
H       -4.28304339       1.08514474       0.77145218
O       -6.19381096       1.87502539       4.29621299
H       -5.36554825       1.84468361       4.82057524
9
Properties=species:S:1:pos:R:3 energy=-722.8653905932705 pbc="F F F"
C       -7.89182513       1.28336734       0.69386051
C       -6.47993055       1.40074132       0.90575988
H       -8.01555044       0.28339968       0.25747020
H       -8.30117914       2.00490704      -0.02931137
H       -8.56025468       1.33978741       1.56376779
C       -5.28461647       1.25755171       0.87285712
H       -4.28122918       1.08690547       0.79311106
O       -6.21267505       1.86532905       4.23064553
H       -5.38265937       1.83905099       4.75262927
9
Properties=species:S:1:pos:R:3 energy=-722.8535804648689 pbc="F F F"
C       -7.88568857       1.28684479       0.71181532
C       -6.47643870       1.40134826       0.93898987
H       -8.00021259       0.30701824       0.23516280
H       -8.29971931       2.03164114       0.02102350
H       -8.55481377       1.30020810       1.57794253
C       -5.28231479       1.25599187       0.89068524
H       -4.27950251       1.08883013       0.81477895
O       -6.23155260       1.85571414       4.16548081
H       -5.39967715       1.83344331       4.68491097
9
Properties=species:S:1:pos:R:3 energy=-722.8570394694734 pbc="F F F"
C       -7.87957053       1.29024799       0.72961176
C       -6.47306981       1.40171095       0.97275017
H       -7.98474560       0.33246051       0.21332617
H       -8.29838751       2.05719881       0.07244442
H       -8.54899792       1.26031081       1.59025985
C       -5.28027204       1.25415396       0.90775273
H       -4.27784082       1.09090825       0.83645100
O       -6.25044198       1.84618573       4.10074851
H       -5.41659379       1.82786299       4.61744539
9
Properties=species:S:1:pos:R:3 energy=-722.8419941580801 pbc="F F F"
C       -7.87348226       1.29355897       0.74723711
C       -6.46982398       1.40184249       1.00704396
H       -7.96914797       0.35970387       0.19200320
H       -8.29718072       2.08155136       0.12489335
H       -8.54282573       1.22015694       1.60072574
C       -5.27849476       1.25203576       0.92402836
H       -4.27622151       1.09312933       0.85812237
O       -6.26934159       1.83674888       4.03647833
H       -5.43340148       1.82231240       4.55025757
9
Properties=species:S:1:pos:R:3 energy=-722.8243057499812 pbc="F F F"
C       -7.86743502       1.29675973       0.76467862
C       -6.46670128       1.40175599       1.04187447
H       -7.95341820       0.38872574       0.17123681
H       -8.29609594       2.10467009       0.17831225
H       -8.53631585       1.17980789       1.60934616
C       -5.27698949       1.24963506       0.93948093
H       -4.27462201       1.09548290       0.87978822
O       -6.28824980       1.82740865       3.97269997
H       -5.45009242       1.81679395       4.48337256
9
Properties=species:S:1:pos:R:3 energy=-722.8043072513319 pbc="F F F"
C       -7.86144008       1.29983232       0.78192358
C       -6.46370182       1.40146455       1.07724490
H       -7.93755478       0.41950350       0.15106990
H       -8.29513015       2.12652631       0.23264308
H       -8.52948688       1.13932505       1.61612709
C       -5.27576273       1.24694966       0.95407924
H       -4.27301974       1.09795847       0.90144371
O       -6.30716502       1.81817011       3.90944310
H       -5.46665881       1.81131003       4.41681540
9
Properties=species:S:1:pos:R:3 energy=-722.7825992426162 pbc="F F F"
C       -7.85550870       1.30275876       0.79895925
C       -6.46082567       1.40098126       1.11315846
H       -7.92155621       0.45201457       0.13154537
H       -8.29428035       2.14709134       0.28782781
H       -8.52235746       1.09876983       1.62107450
C       -5.27482104       1.24397733       0.96779205
H       -4.27139211       1.10054557       0.92308399
O       -6.32608561       1.80903832       3.84673743
H       -5.48309283       1.80586302       4.35061113
9
Properties=species:S:1:pos:R:3 energy=-722.7600373735218 pbc="F F F"
C       -7.84965215       1.30552108       0.81577291
C       -6.45807293       1.40031923       1.14961837
H       -7.90542098       0.48623635       0.11270612
H       -8.29354354       2.16633646       0.34380839
H       -8.51494622       1.05820362       1.62419437
C       -5.27417094       1.24071588       0.98058817
H       -4.26971656       1.10323370       0.94470421
O       -6.34500998       1.80001835       3.78461263
H       -5.49938670       1.80045533       4.28478480
9
Properties=species:S:1:pos:R:3 energy=-722.7377071962125 pbc="F F F"
C       -7.84388167       1.30810130       0.83235183
C       -6.45544369       1.39949155       1.18662783
H       -7.88914760       0.52214622       0.09459507
H       -8.29291670       2.18423300       0.40052680
H       -8.50727177       1.01768782       1.62549266
C       -5.27381897       1.23716309       0.99243639
H       -4.26797048       1.10601240       0.96629954
O       -6.36393651       1.79111526       3.72309841
H       -5.51553261       1.79508935       4.21936145
9
Properties=species:S:1:pos:R:3 energy=-722.7170130542678 pbc="F F F"
C       -7.83820855       1.31048145       0.84868328
C       -6.45293803       1.39851134       1.22419006
H       -7.87273456       0.55972161       0.07725512
H       -8.29239683       2.20075226       0.45792498
H       -8.49935274       0.97728383       1.62497534
C       -5.27377164       1.23331675       1.00330548
H       -4.26613132       1.10887118       0.98786513
O       -6.38286359       1.78233412       3.66222446
H       -5.53152274       1.78976747       4.15436613
9
Properties=species:S:1:pos:R:3 energy=-722.7001873013814 pbc="F F F"
C       -7.83264403       1.31264355       0.86475452
C       -6.45055604       1.39739168       1.26230826
H       -7.85618036       0.59893990       0.06072917
H       -8.29198091       2.21586555       0.51594491
H       -8.49120776       0.93705305       1.62264840
C       -5.27403550       1.22917464       1.01316424
H       -4.26417648       1.11179955       1.00939614
O       -6.40178960       1.77367999       3.60202046
H       -5.54734931       1.78449209       4.08982388
9
Properties=species:S:1:pos:R:3 energy=-722.6917618668839 pbc="F F F"
C       -7.82719939       1.31456964       0.88055284
C       -6.44829781       1.39614569       1.30098565
H       -7.83948349       0.63977849       0.04506013
H       -8.29166596       2.22954418       0.57452855
H       -8.48285546       0.89705688       1.61851780
C       -5.27461708       1.22473456       1.02198146
H       -4.26208338       1.11478703       1.03088773
O       -6.42071293       1.76515793       3.54251610
H       -5.56300451       1.77926559       4.02575974
9
Properties=species:S:1:pos:R:3 energy=-722.7015613464634 pbc="F F F"
C       -7.82188588       1.31624174       0.89606551
C       -6.44616344       1.39478647       1.34022543
H       -7.82264246       0.68221480       0.03029090
H       -8.29144895       2.24175944       0.63361785
H       -8.47431444       0.85735671       1.61258951
C       -5.27552290       1.21999430       1.02972593
H       -4.25982945       1.11782315       1.05233504
O       -6.43963197       1.75677302       3.48374108
H       -5.57848052       1.77409037       3.96219875
9
Properties=species:S:1:pos:R:3 energy=-722.7484247690252 pbc="F F F"
C       -7.81671476       1.31764187       0.91127978
C       -6.44415300       1.39332710       1.38003082
H       -7.80565575       0.72622622       0.01646438
H       -8.29132687       2.25248266       0.69315479
H       -8.46560336       0.81801395       1.60486950
C       -5.27675949       1.21495164       1.03636643
H       -4.25739210       1.12089741       1.07373325
O       -6.45854510       1.74853030       3.42572508
H       -5.59376956       1.76896883       3.89916597
9
Properties=species:S:1:pos:R:3 energy=-722.8608109445726 pbc="F F F"
C       -7.81169730       1.31875207       0.92618294
C       -6.44226659       1.39178070       1.42040502
H       -7.78852186       0.77179014       0.00362349
H       -8.29129673       2.26168513       0.75308131
H       -8.45674082       0.77909000       1.59536376
C       -5.27833340       1.20960438       1.04187174
H       -4.25474876       1.12399935       1.09507750
O       -6.47745072       1.74043486       3.36849780
H       -5.60886381       1.76390336       3.83668643
9
Properties=species:S:1:pos:R:3 energy=-723.0698351114513 pbc="F F F"
C       -7.80684477       1.31955436       0.94076226
C       -6.44050430       1.39016037       1.46135125
H       -7.77123930       0.81888398      -0.00818888
H       -8.29135552       2.26933817       0.81333939
H       -8.44774545       0.74064624       1.58407824
C       -5.28025114       1.20395031       1.04621067
H       -4.25187684       1.12711847       1.11636295
O       -6.49634721       1.73249175       3.31208893
H       -5.62375548       1.75889635       3.77478518
9
Properties=species:S:1:pos:R:3 energy=-723.3907673504018 pbc="F F F"
C       -7.80216842       1.32003076       0.95500501
C       -6.43886622       1.38847921       1.50287272
H       -7.75380656       0.86748513      -0.01892982
H       -8.29150022       2.27541308       0.87387099
H       -8.43863588       0.70274409       1.57101893
C       -5.28251925       1.19798720       1.04935200
H       -4.24875376       1.13024430       1.13758476
O       -6.51523295       1.72470603       3.25652815
H       -5.63843676       1.75395020       3.71348726
9
Properties=species:S:1:pos:R:3 energy=-723.79337518679 pbc="F F F"
C       -7.79767951       1.32016331       0.96889845
C       -6.43735242       1.38675031       1.54497263
H       -7.73622213       0.91757099      -0.02855642
H       -8.29172782       2.27988117       0.93461807
H       -8.42943073       0.66544494       1.55619179
C       -5.28514427       1.19171286       1.05126451
H       -4.24535694       1.13336635       1.15873809
O       -6.53410634       1.71708278       3.20184516
H       -5.65289984       1.74906729       3.65281771
9
Properties=species:S:1:pos:R:3 energy=-724.2010225437654 pbc="F F F"
C       -7.79338931       1.31993402       0.98242987
C       -6.43596301       1.38498679       1.58765420
H       -7.71848452       0.96911897      -0.03702578
H       -8.29203533       2.28271375       0.99552258
H       -8.42014863       0.62881018       1.53960279
C       -5.28813271       1.18512507       1.05191700
H       -4.24166381       1.13647414       1.17981809
O       -6.55296575       1.70962705       3.14806965
H       -5.66713693       1.74425003       3.59280159
9
Properties=species:S:1:pos:R:3 energy=-724.5215398446014 pbc="F F F"
C       -7.78930908       1.31932493       0.99558653
C       -6.43469808       1.38320174       1.63092064
H       -7.70059222       1.02210647      -0.04429500
H       -8.29241974       2.28388212       1.05652651
H       -8.41080820       0.59290122       1.52125792
C       -5.29149112       1.17822162       1.05127825
H       -4.23765177       1.13955718       1.20081992
O       -6.57180959       1.70234391       3.09523131
H       -5.68114021       1.73950080       3.53346392
9
Properties=species:S:1:pos:R:3 energy=-724.6501056913709 pbc="F F F"
C       -7.78545008       1.31831807       1.00835570
C       -6.43355770       1.38140826       1.67477515
H       -7.68254372       1.07651088      -0.05032117
H       -8.29287803       2.28335759       1.11757179
H       -8.40142806       0.55777946       1.50116313
C       -5.29522602       1.17100030       1.04931704
H       -4.23329826       1.14260501       1.22173873
O       -6.59063623       1.69523843       3.04335984
H       -5.69490190       1.73482200       3.47482976
