9
Properties=species:S:1:pos:R:3 energy=-724.6500662111376 pbc="F F F"
C       -6.40215500       1.91222100      -1.30283600
C       -6.60457700       1.16323500      -0.00909900
H       -6.97357300       1.45052800      -2.10913400
H       -5.33739900       1.91505500      -1.56151300
H       -6.71944500       2.95338900      -1.17661800
C       -7.36951100       0.09958800       0.11250900
H       -7.70438100      -0.61679900       0.84249500
O       -5.85657600       1.77789000       1.01991900
H       -5.99572400       1.27794100       1.86889400
9
Properties=species:S:1:pos:R:3 energy=-724.6494278420523 pbc="F F F"
C       -6.39493124       1.92324283      -1.31324397
C       -6.62567884       1.14353143       0.00400309
H       -6.98692571       1.47860927      -2.10449785
H       -5.33632849       1.89225395      -1.56911113
H       -6.68542219       2.96312053      -1.16354355
C       -7.37065951       0.07864191       0.14303439
H       -7.70821578      -0.64993618       0.84222082
O       -5.89006001       1.80238956       0.99752990
H       -5.96511924       1.30119471       1.84822530
9
Properties=species:S:1:pos:R:3 energy=-724.5725633582975 pbc="F F F"
C       -6.38712774       1.93485177      -1.32377420
C       -6.64673131       1.12388138       0.01845594
H       -6.99978363       1.50715061      -2.09957717
H       -5.33560752       1.86986855      -1.57689934
H       -6.65093513       2.97282624      -1.15077023
C       -7.37184211       0.05769943       0.17362197
H       -7.71168353      -0.68298538       0.84280139
O       -5.92343420       1.82529292       0.97537959
H       -5.93619584       1.32446246       1.82537904
9
Properties=species:S:1:pos:R:3 energy=-724.4280152168049 pbc="F F F"
C       -6.37877803       1.94701061      -1.33439843
C       -6.66771403       1.10429485       0.03419966
H       -7.01212629       1.53614001      -2.09439741
H       -5.33523762       1.84792623      -1.58488284
H       -6.61601618       2.98248951      -1.13832374
C       -7.37305649       0.03676563       0.20425820
H       -7.71478857      -0.71592883       0.84422492
O       -5.95668560       1.84662136       0.95351336
H       -5.90893817       1.34772862       1.80042327
9
Properties=species:S:1:pos:R:3 energy=-724.225275184917 pbc="F F F"
C       -6.36991567       1.95968213      -1.34508844
C       -6.68860663       1.08478180       0.05117441
H       -7.02393323       1.56556544      -2.08898404
H       -5.33522034       1.82645439      -1.59306682
H       -6.58069772       2.99209373      -1.12622978
C       -7.37430033       0.01584556       0.23492953
H       -7.71753523      -0.74874882       0.84647963
O       -5.98980123       1.86639618       0.93197648
H       -5.88333062       1.37097758       1.77342602
9
Properties=species:S:1:pos:R:3 energy=-723.9745664351938 pbc="F F F"
C       -6.36057419       1.97282909      -1.35581600
C       -6.70938874       1.06535222       0.06932029
H       -7.03518400       1.59541488      -2.08336251
H       -5.33555720       1.80548045      -1.60145648
H       -6.54501209       3.00162229      -1.11451403
C       -7.37557130      -0.00505574       0.26562242
H       -7.71992783      -0.78142759       0.84955373
O       -6.02276810       1.88463867       0.91081423
H       -5.85935755       1.39419373       1.74445535
9
Properties=species:S:1:pos:R:3 energy=-723.6868313149561 pbc="F F F"
C       -6.35078714       1.98641428      -1.36655286
C       -6.73003998       1.04601608       0.08857746
H       -7.04585814       1.62567631      -2.07755829
H       -5.33624975       1.78503181      -1.61005703
H       -6.50899167       3.01105858      -1.10320220
C       -7.37686708      -0.02593320       0.29632330
H       -7.72197068      -0.81394741       0.85343544
O       -6.05557323       1.90137011       0.89007189
H       -5.83700334       1.41736143       1.71357929
9
Properties=species:S:1:pos:R:3 energy=-723.3742069692846 pbc="F F F"
C       -6.34058807       2.00040047      -1.37727079
C       -6.75053997       1.02678339       0.10888603
H       -7.05593518       1.65633771      -2.07159684
H       -5.33729951       1.76513588      -1.61887366
H       -6.47266881       3.02038597      -1.09231997
C       -7.37818534      -0.04678179       0.32701864
H       -7.72366811      -0.84629053       0.85811296
O       -6.08820364       1.91661181       0.86979474
H       -5.81625237       1.44046509       1.68086589
9
Properties=species:S:1:pos:R:3 energy=-723.0517571047175 pbc="F F F"
C       -6.33001052       2.01475043      -1.38794155
C       -6.77086835       1.00766410       0.13018614
H       -7.06539466       1.68738705      -2.06550360
H       -5.33870802       1.74582008      -1.62791158
H       -6.43607588       3.02958787      -1.08189305
C       -7.37952378      -0.06759643       0.35769489
H       -7.72502443      -0.87843921       0.86357451
O       -6.12064635       1.93038505       0.85002805
H       -5.79708901       1.46348907       1.64638319
9
Properties=species:S:1:pos:R:3 energy=-722.7421146823955 pbc="F F F"
C       -6.31908804       2.02942695      -1.39853691
C       -6.79100473       0.98866821       0.15241792
H       -7.07421613       1.71881231      -2.05930406
H       -5.34047681       1.72711181      -1.63717598
H       -6.39924524       3.03864766      -1.07194712
C       -7.38088005      -0.08837209       0.38833849
H       -7.72604398      -0.91037572       0.86980831
O       -6.15288838       1.94271112       0.83081711
H       -5.77949764       1.48641776       1.61019924
9
Properties=species:S:1:pos:R:3 energy=-722.4804703953424 pbc="F F F"
C       -6.30785418       2.04439279      -1.40902864
C       -6.81092874       0.96980570       0.17552151
H       -7.08237913       1.75060146      -2.05302365
H       -5.34260742       1.70903850      -1.64667207
H       -6.36220925       3.04754872      -1.06250788
C       -7.38225185      -0.10910371       0.41893590
H       -7.72673106      -0.94208231       0.87680257
O       -6.18491675       1.95361131       0.81220719
H       -5.76346264       1.50923555       1.57238207
9
Properties=species:S:1:pos:R:3 energy=-722.2997347008645 pbc="F F F"
C       -6.29634247       2.05961073      -1.41938849
C       -6.83062001       0.95108654       0.19943702
H       -7.08986319       1.78274250      -2.04668785
H       -5.34510138       1.69162754      -1.65640504
H       -6.32500028       3.05627444      -1.05360102
C       -7.38363684      -0.12978624       0.44947357
H       -7.72709000      -0.97354124       0.88454550
O       -6.21671847       1.96310692       0.79424357
H       -5.74896837       1.53192682       1.53299974
9
Properties=species:S:1:pos:R:3 energy=-722.2064757966504 pbc="F F F"
C       -6.28458646       2.07504355      -1.42958823
C       -6.85005816       0.93252072       0.22410460
H       -7.09664786       1.81522339      -2.04032211
H       -5.34796022       1.67490635      -1.66638010
H       -6.28765068       3.06480822      -1.04525225
C       -7.38503271      -0.15041462       0.47993795
H       -7.72712511      -1.00473477       0.89302531
O       -6.24828057       1.97121923       0.77697153
H       -5.73599922       1.55447594       1.49212028
9
Properties=species:S:1:pos:R:3 energy=-722.1869869058611 pbc="F F F"
C       -6.27261970       2.09065402      -1.43959962
C       -6.86922283       0.91411822       0.24946438
H       -7.10271267       1.84803211      -2.03395189
H       -5.35118549       1.65890233      -1.67660244
H       -6.25019282       3.07313343      -1.03748725
C       -7.38643713      -0.17098380       0.51031550
H       -7.72684073      -1.03564517       0.90223022
O       -6.27959007       1.97796954       0.76043635
H       -5.72453956       1.57686731       1.44981174
9
Properties=species:S:1:pos:R:3 energy=-722.220704601858 pbc="F F F"
C       -6.26047574       2.10640492      -1.44939443
C       -6.88809362       0.89588902       0.27545648
H       -7.10803718       1.88115664      -2.02760265
H       -5.35477871       1.64364291      -1.68707727
H       -6.21265906       3.08123347      -1.03033172
C       -7.38784778      -0.19148873       0.54059266
H       -7.72624117      -1.06625468       0.91214844
O       -6.31063398       1.98337914       0.74468331
H       -5.71457376       1.59908530       1.40614217
9
Properties=species:S:1:pos:R:3 energy=-722.2862984584856 pbc="F F F"
C       -6.24818811       2.12225903      -1.45894443
C       -6.90665017       0.87784310       0.30202104
H       -7.11260091       1.91458496      -2.02129985
H       -5.35874142       1.62915550      -1.69780978
H       -6.17508177       3.08909173      -1.02381135
C       -7.38926234      -0.21192435       0.57075589
H       -7.72533075      -1.09654557       0.92276819
O       -6.34139932       1.98746932       0.72975769
H       -5.70608621       1.62111430       1.36117959
9
Properties=species:S:1:pos:R:3 energy=-722.3663584313648 pbc="F F F"
C       -6.23579037       2.13817912      -1.46822137
C       -6.92487211       0.85999045       0.32909819
H       -7.11638341       1.94830504      -2.01506895
H       -5.36307516       1.61546749      -1.70880517
H       -6.13749330       3.09669158      -1.01795183
C       -7.39067849      -0.23228563       0.60079164
H       -7.72411378      -1.12650011       0.93407767
O       -6.37187311       1.99026137       0.71570476
H       -5.69906127       1.64293868       1.31499207
9
Properties=species:S:1:pos:R:3 energy=-722.4506906966699 pbc="F F F"
C       -6.22331606       2.15412796      -1.47719702
C       -6.94273905       0.84234104       0.35662806
H       -7.11936421       1.98230487      -2.00893541
H       -5.36778145       1.60260631      -1.72006866
H       -6.09992602       3.10401643      -1.01277887
C       -7.39209390      -0.25256749       0.63068635
H       -7.72259460      -1.15610054       0.94606511
O       -6.40204237       1.99177658       0.70256980
H       -5.69348333       1.66454284       1.26764764
9
Properties=species:S:1:pos:R:3 energy=-722.5346680626174 pbc="F F F"
C       -6.21079872       2.17006834      -1.48584314
C       -6.96023063       0.82490486       0.38455078
H       -7.12152286       2.01657242      -2.00292469
H       -5.37286183       1.59059936      -1.73160543
H       -6.06241229       3.11104965      -1.00831816
C       -7.39350625      -0.27276489       0.66042649
H       -7.72077753      -1.18532912       0.95871872
O       -6.43189413       1.99203625       0.69039809
H       -5.68933675       1.68591115       1.21921434
9
Properties=species:S:1:pos:R:3 energy=-722.6163934275372 pbc="F F F"
C       -6.19827190       2.18596302      -1.49413151
C       -6.97732647       0.80769188       0.41280648
H       -7.12283891       2.05109566      -1.99706225
H       -5.37831784       1.57947405      -1.74342068
H       -6.02498448       3.11777464      -1.00459538
C       -7.39491322      -0.29287278       0.68999850
H       -7.71866687      -1.21416813       0.97202670
O       -6.46141539       1.99106166       0.67923492
H       -5.68660592       1.70702800       1.16976023
9
Properties=species:S:1:pos:R:3 energy=-722.6951116753139 pbc="F F F"
C       -6.18576915       2.20177479      -1.50203387
C       -6.99400619       0.79071209       0.44133530
H       -7.12329188       2.08586258      -1.99137355
H       -5.38415101       1.56925780      -1.75551962
H       -5.98767494       3.12417478      -1.00163625
C       -7.39631249      -0.31288610       0.71938883
H       -7.71626696      -1.24259981       0.98597727
O       -6.49059317       1.98887410       0.66912555
H       -5.68527521       1.72787777       1.11935333
9
Properties=species:S:1:pos:R:3 energy=-722.7704997044601 pbc="F F F"
C       -6.17332401       2.21746641      -1.50952201
C       -7.01024942       0.77397547       0.47007736
H       -7.12286132       2.12086116      -1.98588404
H       -5.39036288       1.55997802      -1.76790744
H       -5.95051603       3.13023345      -0.99946644
C       -7.39770173      -0.33279980       0.74858394
H       -7.71358211      -1.27060643       1.00055865
O       -6.51941450       1.98549487       0.66011527
H       -5.68532899       1.74844484       1.06806170
9
Properties=species:S:1:pos:R:3 energy=-722.8423450894637 pbc="F F F"
C       -6.16097002       2.23300067      -1.51656767
C       -7.02603579       0.75749201       0.49897280
H       -7.12152677       2.15607937      -1.98061919
H       -5.39695497       1.55166211      -1.78058936
H       -5.91354013       3.13593406      -0.99811165
C       -7.39907863      -0.35260884       0.77757028
H       -7.71061665      -1.29817024       1.01575905
O       -6.54786640       1.98094526       0.65224935
H       -5.68675164       1.76871360       1.01595338
9
Properties=species:S:1:pos:R:3 energy=-722.9103914570312 pbc="F F F"
C       -6.14874073       2.24834034      -1.52314263
C       -7.04134492       0.74127167       0.52796175
H       -7.11926777       2.19150518      -1.97560445
H       -5.40392883       1.54433749      -1.79357055
H       -5.87677959       3.14125998      -0.99759759
C       -7.40044085      -0.37230814       0.80633430
H       -7.70737489      -1.32527351       1.03156668
O       -6.57593588       1.97524656       0.64557308
H       -5.68952754       1.78866842       0.96309641
9
Properties=species:S:1:pos:R:3 energy=-722.9742573256517 pbc="F F F"
C       -6.13666969       2.26344819      -1.52921865
C       -7.05615644       0.72532445       0.55698433
H       -7.11606386       2.22712659      -1.97086529
H       -5.41128598       1.53803157      -1.80685624
H       -5.84026677       3.14619461      -0.99794993
C       -7.40178608      -0.39189268       0.83486244
H       -7.70386115      -1.35189849       1.04796976
O       -6.60360997       1.96842006       0.64013173
H       -5.69364106       1.80829369       0.90955884
9
Properties=species:S:1:pos:R:3 energy=-723.0333876478643 pbc="F F F"
C       -6.12479044       2.27828701      -1.53476749
C       -7.07044997       0.70966033       0.58598069
H       -7.11189458       2.26293156      -1.96642717
H       -5.41902797       1.53277176      -1.82045160
H       -5.80403404       3.15072132      -0.99919439
C       -7.40311200      -0.41135738       0.86314117
H       -7.70007976      -1.37802744       1.06495650
O       -6.63087567       1.96048705       0.63597059
H       -5.69907657       1.82757379       0.85540871
9
Properties=species:S:1:pos:R:3 energy=-723.0870130603887 pbc="F F F"
C       -6.11313653       2.29281956      -1.53976092
C       -7.08420513       0.69428928       0.61489094
H       -7.10673947       2.29890807      -1.96231554
H       -5.42715633       1.52858547      -1.83436186
H       -5.76811376       3.15482351      -1.00135664
C       -7.40441627      -0.43069720       0.89115694
H       -7.69603504      -1.40364263       1.08251510
O       -6.65772002       1.95146883       0.63313492
H       -5.70581846       1.84649311       0.80071406
9
Properties=species:S:1:pos:R:3 energy=-723.1341139477078 pbc="F F F"
C       -6.10174149       2.30700863      -1.54417070
C       -7.09740156       0.67922129       0.64365523
H       -7.10057807       2.33504410      -1.95855587
H       -5.43567258       1.52550011      -1.84859220
H       -5.73253829       3.15848457      -1.00446239
C       -7.40569659      -0.44990709       0.91889619
H       -7.69173130      -1.42872631       1.10063380
O       -6.68413002       1.94138667       0.63167001
H       -5.71385110       1.86503602       0.74554293
9
Properties=species:S:1:pos:R:3 energy=-723.1733817791753 pbc="F F F"
C       -6.09063889       2.32081698      -1.54796859
C       -7.11001887       0.66446633       0.67221369
H       -7.09338992       2.37132763      -1.95517360
H       -5.44457827       1.52354309      -1.86314783
H       -5.69733999       3.16168788      -1.00853734
C       -7.40695063      -0.46898199       0.94634537
H       -7.68717287      -1.45326073       1.11930079
O       -6.71009271       1.93026189       0.63162114
H       -5.72315886       1.88318692       0.68996337
9
Properties=species:S:1:pos:R:3 energy=-723.2031844546804 pbc="F F F"
C       -6.07986225       2.33420740      -1.55112637
C       -7.12203670       0.65003440       0.70050643
H       -7.08515456       2.40774664      -1.95219422
H       -5.45387493       1.52274183      -1.87803395
H       -5.66255123       3.16441683      -1.01360716
C       -7.40817606      -0.48791685       0.97349094
H       -7.68236407      -1.47722817       1.13850430
O       -6.73559509       1.91811575       0.63303358
H       -5.73372612       1.90093017       0.63404343
9
Properties=species:S:1:pos:R:3 energy=-723.2215447310414 pbc="F F F"
C       -6.06944419       2.34714424      -1.55361818
C       -7.13343596       0.63593444       0.72847507
H       -7.07585252       2.44428928      -1.94964258
H       -5.46356386       1.52312243      -1.89325558
H       -5.62820380       3.16665505      -1.01969628
C       -7.40937053      -0.50670689       1.00031984
H       -7.67730928      -1.50061193       1.15823249
O       -6.76062467       1.90497060       0.63595071
H       -5.74553619       1.91825078       0.57785151
9
Properties=species:S:1:pos:R:3 energy=-723.2261434584926 pbc="F F F"
C       -6.05939566       2.35962812      -1.55547319
C       -7.14422735       0.62215172       0.75609497
H       -7.06548702       2.48094801      -1.94753034
H       -5.47364098       1.52468110      -1.90881404
H       -5.59431647       3.16839153      -1.02679926
C       -7.41053104      -0.52535353       1.02683011
H       -7.67201432      -1.52341921       1.17847231
O       -6.78518026       1.89087246       0.64037185
H       -5.75854790       1.93514781       0.52146458
9
Properties=species:S:1:pos:R:3 energy=-723.2143404904057 pbc="F F F"
C       -6.04970595       2.37169594      -1.55677560
C       -7.15445134       0.60864782       0.78337526
H       -7.05408397       2.51771956      -1.94585586
H       -5.48409683       1.52738415      -1.92470688
H       -5.56089500       3.16962064      -1.03488088
C       -7.41165393      -0.54386438       1.05303092
H       -7.66648644      -1.54568116       1.19920955
O       -6.80927192       1.87589107       0.64625235
H       -5.77269562       1.95163436       0.46496815
9
Properties=species:S:1:pos:R:3 energy=-723.1833610638071 pbc="F F F"
C       -6.04036341       2.38338619      -1.55761199
C       -7.16414972       0.59538331       0.81032653
H       -7.04167025       2.55460083      -1.94461695
H       -5.49492174       1.53119658      -1.94093149
H       -5.52794456       3.17033701      -1.04390461
C       -7.41273551      -0.56224732       1.07893191
H       -7.66073295      -1.56742998       1.22042993
O       -6.83291022       1.86009720       0.65354559
H       -5.78791264       1.96772417       0.40844809
9
Properties=species:S:1:pos:R:3 energy=-723.130640148424 pbc="F F F"
C       -6.03135641       2.39473735      -1.55806893
C       -7.17336425       0.58231873       0.83695938
H       -7.02827278       2.59158875      -1.94381142
H       -5.50610600       1.53608340      -1.95748527
H       -5.49547034       3.17053524      -1.05383392
C       -7.41377208      -0.58051025       1.10454273
H       -7.65476118      -1.58869783       1.24211917
O       -6.85610572       1.84356164       0.66220498
H       -5.80413224       1.98343097       0.35199027
9
Properties=species:S:1:pos:R:3 energy=-723.0542842960897 pbc="F F F"
C       -6.02267329       2.40578789      -1.55823300
C       -7.18213670       0.56941465       0.86328440
H       -7.01391843       2.62868022      -1.94343706
H       -5.51763994       1.54200961      -1.97436561
H       -5.46347751       3.17020994      -1.06463230
C       -7.41475997      -0.59866105       1.12987304
H       -7.64857845      -1.60951691       1.26426300
O       -6.87886899       1.82635514       0.67218395
H       -5.82128772       1.99876849       0.29568059
9
Properties=species:S:1:pos:R:3 energy=-722.9536691009384 pbc="F F F"
C       -6.01430241       2.41657630      -1.55819079
C       -7.19050885       0.55663163       0.88931220
H       -6.99863412       2.66587216      -1.94349169
H       -5.52951385       1.54894023      -1.99156990
H       -5.43197127       3.16935573      -1.07626322
C       -7.41569547      -0.61670761       1.15493247
H       -7.64219205      -1.62991939       1.28684713
O       -6.90121059       1.80854849       0.68343588
H       -5.83931238       2.01375046       0.23960491
9
Properties=species:S:1:pos:R:3 energy=-722.8302334061128 pbc="F F F"
C       -6.00623212       2.42714105      -1.55802887
C       -7.19852246       0.54393020       0.91505337
H       -6.98244674       2.70316149      -1.94397309
H       -5.54171806       1.55684025      -2.00909554
H       -5.40095679       3.16796722      -1.08869014
C       -7.41657490      -0.63465781       1.17973068
H       -7.63560933      -1.64993746       1.30985729
O       -6.92314110       1.79021245       0.69591419
H       -5.85813951       2.02839060       0.18384911
9
Properties=species:S:1:pos:R:3 energy=-722.6886706807745 pbc="F F F"
C       -5.99845078       2.43752063      -1.55783382
C       -7.20621931       0.53127095       0.94051850
H       -6.96538318       2.74054511      -1.94487908
H       -5.55424287       1.56567468      -2.02693993
H       -5.37043925       3.16603902      -1.10187655
C       -7.41739457      -0.65251954       1.20427731
H       -7.62883757      -1.66960331       1.33327920
O       -6.94467106       1.77141781       0.70957229
H       -5.87770241       2.04270265       0.12849908
9
Properties=species:S:1:pos:R:3 energy=-722.5391387940502 pbc="F F F"
C       -5.99094675       2.44775350      -1.55769222
C       -7.21364117       0.51861441       0.96571819
H       -6.94747033       2.77801995      -1.94620747
H       -5.56707859       1.57540853      -2.04510045
H       -5.34042384       3.16356574      -1.11578592
C       -7.41815078      -0.67030068       1.22858201
H       -7.62188412      -1.68894911       1.35709858
O       -6.96581106       1.75223532       0.72436358
H       -5.89793435       2.05670034       0.07364069
9
Properties=species:S:1:pos:R:3 energy=-722.4021908289048 pbc="F F F"
C       -5.98370838       2.45787816      -1.55769065
C       -7.22082981       0.50592115       0.99066305
H       -6.92873511       2.81558291      -1.94795604
H       -5.58021554       1.58600680      -2.06357451
H       -5.31091574       3.16054199      -1.13038172
C       -7.41883986      -0.68800913       1.25265443
H       -7.61475627      -1.70800705       1.38130116
O       -6.98657165       1.73273577       0.74024147
H       -5.91876865       2.07039739       0.01935981
9
Properties=species:S:1:pos:R:3 energy=-722.319001231572 pbc="F F F"
C       -5.97672402       2.46793309      -1.55791569
C       -7.22782700       0.49315171       1.01536365
H       -6.90920439       2.85323092      -1.95012261
H       -5.59364402       1.59743451      -2.08235949
H       -5.28192013       3.15696239      -1.14562743
C       -7.41945811      -0.70565277       1.27650422
H       -7.60746135      -1.72680931       1.40587266
O       -7.00696340       1.71298993       0.75715936
H       -5.94013859       2.08380754      -0.03425768
9
Properties=species:S:1:pos:R:3 energy=-722.3547313315694 pbc="F F F"
C       -5.96998203       2.47795675      -1.55845393
C       -7.23467451       0.48026667       1.03983061
H       -6.88890508       2.89096088      -1.95270498
H       -5.60735434       1.60965664      -2.10145279
H       -5.25344219       3.15282154      -1.16148652
C       -7.42000184      -0.72323948       1.30014103
H       -7.60000666      -1.74538808       1.43079879
O       -7.02699688       1.69306856       0.77507067
H       -5.96197747       2.09694451      -0.08712589
9
Properties=species:S:1:pos:R:3 energy=-722.5362085219433 pbc="F F F"
C       -5.96347075       2.48798763      -1.55939193
C       -7.24141412       0.46722657       1.06407452
H       -6.86786407       2.92876971      -1.95570095
H       -5.62133683       1.62263822      -2.12085181
H       -5.22548711       3.14811406      -1.17792246
C       -7.42046736      -0.74077715       1.32357449
H       -7.59239954      -1.76377553       1.45606529
O       -7.04668265       1.67304245       0.79392880
H       -5.98421857       2.10982203      -0.13915895
9
Properties=species:S:1:pos:R:3 energy=-722.7964932673534 pbc="F F F"
C       -5.95717856       2.49806422      -1.56081628
C       -7.24808760       0.45399198       1.08810597
H       -6.84610827       2.96665433      -1.95910833
H       -5.63558178       1.63634424      -2.14055394
H       -5.19806006       3.14283455      -1.19489873
C       -7.42085098      -0.75827367       1.34681427
H       -7.58464729      -1.78200386       1.48165787
O       -7.06603127       1.65298237       0.81368715
H       -6.00679520       2.12245384      -0.19027098
9
Properties=species:S:1:pos:R:3 energy=-723.0707682246116 pbc="F F F"
C       -5.95109380       2.50822498      -1.56281356
C       -7.25473671       0.44052344       1.11193556
H       -6.82366456       3.00461164      -1.96292492
H       -5.65007951       1.65073972      -2.16055657
H       -5.17116623       3.13697764      -1.21237881
C       -7.42114901      -0.77573692       1.36987000
H       -7.57675723      -1.80010524       1.50756226
O       -7.08505331       1.63295909       0.83429914
H       -6.02964064       2.13485366      -0.24037611
9
Properties=species:S:1:pos:R:3 energy=-723.329892808516 pbc="F F F"
C       -5.94520482       2.51850841      -1.56547035
C       -7.26140323       0.42678151       1.13557389
H       -6.80055984       3.04263857      -1.96714852
H       -5.66482033       1.66578965      -2.18085710
H       -5.14481080       3.13053793      -1.23032617
C       -7.42135776      -0.79317479       1.39275134
H       -7.56873668      -1.81811185       1.53376418
O       -7.10375934       1.61304337       0.85571817
H       -6.05268819       2.14703522      -0.28938845
9
Properties=species:S:1:pos:R:3 energy=-723.561010817592 pbc="F F F"
C       -5.93949999       2.52895297      -1.56887323
C       -7.26812894       0.41272675       1.15903156
H       -6.77682101       3.08073202      -1.97177693
H       -5.67979455       1.68145904      -2.20145292
H       -5.11899896       3.12351003      -1.24870428
C       -7.42147355      -0.81059517       1.41546793
H       -7.56059295      -1.83605589       1.56024935
O       -7.12215992       1.59330600       0.87789765
H       -6.07587114       2.15901225      -0.33722213
9
Properties=species:S:1:pos:R:3 energy=-723.7584347226194 pbc="F F F"
C       -5.93396765       2.53959715      -1.57310877
C       -7.27495560       0.39831971       1.18231915
H       -6.75247496       3.11888892      -1.97680796
H       -5.69499249       1.69771291      -2.22234143
H       -5.09373588       3.11588856      -1.26747661
C       -7.42149267      -0.82800595       1.43802942
H       -7.55233335      -1.85396953       1.58700350
O       -7.14026561       1.57381775       0.90079098
H       -6.09912279       2.17079848      -0.38379127
9
Properties=species:S:1:pos:R:3 energy=-723.9205740943507 pbc="F F F"
C       -5.92859616       2.55047942      -1.57826356
C       -7.28192498       0.38352096       1.20544727
H       -6.72754859       3.15710617      -1.98223942
H       -5.71040444       1.71451624      -2.24352001
H       -5.06902674       3.10766812      -1.28660665
C       -7.42141145      -0.84541500       1.46044546
H       -7.54396521      -1.87188495       1.61401234
O       -7.15808699       1.55464939       0.92435157
H       -6.12237642       2.18240764      -0.42900999
9
Properties=species:S:1:pos:R:3 energy=-724.0485734725816 pbc="F F F"
C       -5.92337388       2.56163828      -1.58442418
C       -7.28907886       0.36829105       1.22842651
H       -6.70206880       3.19538068      -1.98806910
H       -5.72602073       1.73183406      -2.26498608
H       -5.04487674       3.09884334      -1.30605787
C       -7.42122620      -0.86283021       1.48272570
H       -7.53549584      -1.88983435       1.64126160
O       -7.17563461       1.53587169       0.94853283
H       -6.14556534       2.19385346      -0.47279242
9
Properties=species:S:1:pos:R:3 energy=-724.1454482420412 pbc="F F F"
C       -5.91828915       2.57311219      -1.59167720
C       -7.29645901       0.35259053       1.25126748
H       -6.67606248       3.23370938      -1.99429481
H       -5.74183166       1.74963136      -2.28673701
H       -5.02129104       3.08940881      -1.32579373
C       -7.42093321      -0.88025948       1.50487978
H       -7.52693256      -1.90784989       1.66873700
O       -7.19291905       1.51755542       0.97328816
H       -6.16862284       2.20514967      -0.51505267
9
Properties=species:S:1:pos:R:3 energy=-724.2153794290352 pbc="F F F"
C       -5.91333034       2.58493964      -1.60010921
C       -7.30410719       0.33637995       1.27398076
H       -6.64955653       3.27208918      -2.00091435
H       -5.75782755       1.76787316      -2.30877020
H       -4.99827484       3.07935915      -1.34577772
C       -7.42052881      -0.89771068       1.52691735
H       -7.51828267      -1.92596377       1.69642427
O       -7.20995086       1.49977137       0.99857098
H       -6.19148220       2.21631000      -0.55570488
9
Properties=species:S:1:pos:R:3 energy=-724.2630705669926 pbc="F F F"
C       -5.90848580       2.59715910      -1.60980679
C       -7.31206519       0.31961989       1.29657695
H       -6.62257785       3.31051699      -2.00792552
H       -5.77399871       1.78652445      -2.33108306
H       -4.97583331       3.06868898      -1.36597330
C       -7.42000931      -0.91519171       1.54884806
H       -7.50955350      -1.94420817       1.72430912
O       -7.22674061       1.48259029       1.02433468
H       -6.21407673       2.22734818      -0.59466315
9
Properties=species:S:1:pos:R:3 energy=-724.2931476975274 pbc="F F F"
C       -5.90374388       2.60980906      -1.62085651
C       -7.32037477       0.30227089       1.31906666
H       -6.59515332       3.34898973      -2.01532613
H       -5.79033544       1.80555025      -2.35367296
H       -4.95397164       3.05739290      -1.38634396
C       -7.41937101      -0.93271045       1.57068156
H       -7.50075237      -1.96261527       1.75237727
O       -7.24329887       1.46608297       1.05053269
H       -6.23633971       2.23827793      -0.63184162
9
Properties=species:S:1:pos:R:3 energy=-724.3094028469886 pbc="F F F"
C       -5.89909294       2.62292799      -1.63334495
C       -7.32907770       0.28429350       1.34146047
H       -6.56730986       3.38750430      -2.02311399
H       -5.80682806       1.82491555      -2.37653731
H       -4.93269501       3.04546553      -1.40685317
C       -7.41861022      -0.95027479       1.59242750
H       -7.49188659      -1.98121726       1.78061446
O       -7.25963620       1.45032018       1.07711839
H       -6.25820444       2.24911299      -0.66715440
9
Properties=species:S:1:pos:R:3 energy=-724.3153715250548 pbc="F F F"
C       -5.89452133       2.63655438      -1.64735869
C       -7.33821576       0.26564829       1.36376898
H       -6.53907434       3.42605763      -2.03128688
H       -5.82346687       1.84458537      -2.39967350
H       -4.91200859       3.03290148      -1.42746439
C       -7.41772326      -0.96789261       1.61409551
H       -7.48296347      -2.00004631       1.80900640
O       -7.27576317       1.43537269       1.10404521
H       -6.27960421       2.25986709      -0.70051563
9
Properties=species:S:1:pos:R:3 energy=-724.3113631820707 pbc="F F F"
C       -5.89001741       2.65072670      -1.66298432
C       -7.34783072       0.24629582       1.38600279
H       -6.51047368       3.46464663      -2.03984263
H       -5.84024220       1.86452471      -2.42307893
H       -4.89191759       3.01969535      -1.44814111
C       -7.41670643      -0.98557180       1.63569526
H       -7.47399033      -2.01913462       1.83753882
O       -7.29169034       1.42131126       1.13126654
H       -6.30047231       2.27055395      -0.73183941
9
Properties=species:S:1:pos:R:3 energy=-724.2982094380424 pbc="F F F"
C       -5.88556953       2.66548343      -1.68030841
C       -7.35796434       0.22619663       1.40817249
H       -6.48153476       3.50326821      -2.04877902
H       -5.85714435       1.88469857      -2.44675098
H       -4.87242716       3.00584177      -1.46884681
C       -7.41555605      -1.00332024       1.65723638
H       -7.46497449      -2.03851435       1.86619743
O       -7.30742828       1.40820669       1.15873579
H       -6.32074205       2.28118730      -0.76103987
9
Properties=species:S:1:pos:R:3 energy=-724.2730528770404 pbc="F F F"
C       -5.88116604       2.68086305      -1.69941755
C       -7.36865840       0.20531128       1.43028869
H       -6.45228448       3.54191929      -2.05809387
H       -5.87416363       1.90507196      -2.47068706
H       -4.85354250       2.99133534      -1.48954494
C       -7.41426842      -1.02114583       1.67872853
H       -7.45592326      -2.05821771       1.89496797
O       -7.32298755       1.39612973       1.18640638
H       -6.34034671       2.29178088      -0.78803114
