9
Properties=species:S:1:pos:R:3 energy=-722.1869869058611 pbc="F F F"
C       -6.27261970       2.09065402      -1.43959962
C       -6.86922283       0.91411822       0.24946438
H       -7.10271267       1.84803211      -2.03395189
H       -5.35118549       1.65890233      -1.67660244
H       -6.25019282       3.07313343      -1.03748725
C       -7.38643713      -0.17098380       0.51031550
H       -7.72684073      -1.03564517       0.90223022
O       -6.27959007       1.97796954       0.76043635
H       -5.72453956       1.57686731       1.44981174
