22
Properties=species:S:1:pos:R:3 energy=-13596.463953709657 pbc="F F F"
C        4.46727900      -2.97885800       0.85691400
C        4.98967400      -3.96501200      -0.19526300
C        5.52035500      -3.21059400      -1.42337900
C        5.99695200      -4.21655100      -2.49313100
C        4.82077600      -4.42927900       2.90151600
C        3.82012600      -3.69189300       2.04296800
H        5.28404600      -2.31477800       1.20115800
H        3.72473700      -2.30284700       0.37595900
H        5.78157900      -4.60836000       0.23153500
H        4.17336000      -4.65245500      -0.50031000
H        3.86063800      -2.93985000      -2.50552900
H        6.31258600      -2.47523300      -1.15464300
C        7.41694900      -4.66986800      -2.39728100
H        5.82748700      -3.98524200       2.96037100
H        3.27890800      -2.96004400       2.68138200
H        3.02783900      -4.39184800       1.70000900
H        8.10421100      -3.89483500      -2.77056600
H        7.59315700      -5.56495100      -3.01637100
H        7.72338700      -4.91170500      -1.37230300
O        4.53587800      -5.44215200       3.49946000
O        4.50886200      -2.38724700      -1.99675000
O        5.22643600      -4.58370900      -3.34921400
