22
Properties=species:S:1:pos:R:3 energy=-13594.665887689662 pbc="F F F"
C       -0.09898523       1.11298177       1.03389373
C       -1.27535857       1.61026928       0.27181505
C       -0.41847166       0.98459167      -0.79660541
C       -0.56733378      -0.31873748      -1.27937795
C        1.11400873      -0.76951393       2.02529107
C       -0.07698583      -0.05963252       1.79112448
H        1.49647370      -0.37101036      -1.67051810
H        0.79060772       1.76082014       1.06312999
H       -2.24987743       1.14518183       0.46489752
H       -1.42046271       2.69482626       0.18711756
H        0.28137587       1.63621358      -1.31991194
H        2.16799459       0.06142511       0.05070203
C       -1.78767423      -1.15310807      -1.12274574
H        1.14863780      -1.52968494       2.81908811
H       -1.00174889      -0.45807963       2.19081148
H        3.12520290      -0.70794770      -0.97841779
H       -1.73084640      -2.07807677      -1.71953974
H       -2.69810693      -0.61358172      -1.42017888
H       -1.91247928      -1.45464657      -0.06800167
O        2.17150350      -0.63361868       1.35184084
O        2.52339845       0.05699189      -0.99390947
O        0.41912769      -0.91566317      -1.88050515
