22
Properties=species:S:1:pos:R:3 energy=-2167.9935699127072 pbc="F F F"
O       -1.43573510       2.93502009       2.32072734
C       -1.17920513       2.14763194       1.45749447
C       -0.64965661       2.46787799       0.09598775
C        0.65418774       1.75646711      -0.25298048
C        0.53791108       0.23396934      -0.12926583
C       -0.54127201      -0.41113221      -1.00131210
H       -0.36758220      -1.50388415      -1.04601956
C       -0.70195399       0.20412152      -2.40462459
O       -1.54290200       1.04968571      -2.57501561
C        0.27751821      -0.31995616      -3.40441344
H       -1.53730801       0.74092727       1.51467960
H       -1.46977442       2.15666918      -0.59839093
H       -0.53393499       3.55652075      -0.09630668
H        0.95719532       2.03189125      -1.28785403
H        1.47682838       2.12493803       0.39747643
H        1.53035699      -0.22020772      -0.33512916
H        0.32153512      -0.02535553       0.94260214
H        1.02488844      -0.98614909      -2.90573183
H       -0.15135769      -0.90880176      -4.24088319
H        0.81681403       0.49044530      -3.93192508
O       -1.92074369      -0.48852931       0.91366362
O       -1.90726249      -0.25062557      -0.36115084
