22
Properties=species:S:1:pos:R:3 energy=-1886.423712635281 pbc="F F F"
C        5.60977557      -4.83393412       1.22686336
C        6.00245558      -4.57652824      -0.21994279
C        6.85758505      -5.34783628      -1.14498278
C        6.44661643      -5.11846673      -2.49266896
C        4.96845990      -3.46971851       3.28250703
C        5.51826459      -3.43923788       1.88565417
H        4.60180044      -5.30127691       1.22519689
H        6.24849228      -5.52768330       1.78562598
H        4.97028777      -4.55852634      -0.72868123
H        6.34940498      -3.50029348      -0.34179616
H        7.81616939      -5.81768634      -0.89090215
H        5.59922054      -8.11284399      -2.76026698
C        6.03566976      -3.90495286      -3.00964863
H        4.88029971      -2.47086769       3.75036483
H        6.51835042      -2.96752371       1.88851292
H        4.87119912      -2.77700317       1.27181382
H        5.83809487      -3.05600663      -2.37076474
H        4.96408297      -5.61526851      -3.23836387
H        6.25551582      -3.55127023      -3.98280706
O        4.64779278      -4.49070530       3.85231302
O        5.69449005      -7.39646454      -2.12615262
O        5.98321598      -6.15603024      -3.27240502
