18
Properties=species:S:1:pos:R:3 energy=-10475.656641625046 pbc="F F F"
C        1.38814500       0.61688400      -0.29371700
H        0.57159900      -0.04624700      -0.54365600
C        2.67001100       0.02342900       0.03433500
C        2.82334900      -1.50456900       0.00088400
C        2.66218000      -2.06506600      -1.41942900
H        3.19293400      -1.44777600      -2.17965200
C        3.11069900      -3.54239200      -1.45390100
O        2.30170800      -4.41646200      -1.24548700
C        4.55076100      -3.79557000      -1.76098000
O        1.30691800      -1.99944100      -1.85407900
H        3.42921000       0.50873400      -0.63021300
H        2.95532000       0.41032200       1.04620700
H        3.80872000      -1.79138600       0.41490500
H        2.06779100      -1.96748100       0.66733600
H        4.73976100      -3.71321800      -2.84301000
H        5.22953200      -3.09638300      -1.25830200
H        4.84791700      -4.81685900      -1.47257100
H        0.76705400      -2.70651900      -1.41582200
