22
Properties=species:S:1:pos:R:3 energy=-2166.479276924522 pbc="F F F"
O       -0.84049773       1.38436470       2.05294920
C       -0.30274980       2.39045995       1.67566484
C        0.89535963       2.45191673       0.75894773
C        1.27321811       1.18693005       0.03899898
C        1.50061289      -0.22579879       0.53336407
C        0.95338304      -1.18995519      -0.55181777
H        1.20538421      -2.25257969      -0.34331835
C        1.40652566      -0.78157771      -1.96420371
O        2.18390659       0.12434306      -2.16781745
C        0.95169600      -1.52489968      -3.17482696
H       -0.67198601       3.39595169       1.93735811
H        0.66748313       3.19400073      -0.05170804
H        1.75892856       2.90955637       1.27248669
H        0.06257977       0.92148765      -0.58316701
H        2.04262364       1.39947362      -0.71758428
H        2.59470658      -0.43356828       0.61462537
H        1.08170426      -0.43897418       1.53652947
H       -0.09497297      -1.30365976      -3.41532483
H        1.53549688      -1.12825924      -4.01691668
H        1.08388639      -2.59725171      -3.13417673
O       -1.13607700      -0.14456822      -0.41620670
O       -0.52858983      -1.30113611      -0.50672797
