9
Properties=species:S:1:pos:R:3 energy=-724.8416681181226 pbc="F F F"
C       -7.07514200       0.65495800       1.06400100
C       -5.69546900       1.06081800       1.39239500
H       -7.63845500       0.35288200       1.96448500
H       -7.08869600      -0.19820000       0.37349600
H       -7.63338400       1.47492600       0.59401900
C       -4.84196200       1.20875600       2.37857800
H       -3.82854600       1.55987400       2.21736600
O       -5.02316200       0.96753600       3.76216600
H       -5.95123800       0.64481300       3.91879700
9
Properties=species:S:1:pos:R:3 energy=-724.8918764650444 pbc="F F F"
C       -7.07156628       0.65628475       1.06446850
C       -5.70733542       1.05475396       1.40353173
H       -7.63810230       0.35754683       1.96606270
H       -7.08792414      -0.20022366       0.37621435
H       -7.63067867       1.47592854       0.59169484
C       -4.83810929       1.21141132       2.37275213
H       -3.82711781       1.55975998       2.22101368
O       -5.02710522       0.97536205       3.75871276
H       -5.94811485       0.63553923       3.91085230
9
Properties=species:S:1:pos:R:3 energy=-724.927227263702 pbc="F F F"
C       -7.06850192       0.65745382       1.06504258
C       -5.71783813       1.04910291       1.41407227
H       -7.63778676       0.36256816       1.96791502
H       -7.08723858      -0.20240930       0.37932270
H       -7.62787967       1.47690094       0.58931908
C       -4.83503410       1.21376040       2.36734578
H       -3.82587094       1.55958080       2.22467960
O       -5.03140971       0.98433498       3.75526749
H       -5.94449419       0.62507029       3.90233847
9
Properties=species:S:1:pos:R:3 energy=-724.9506702600976 pbc="F F F"
C       -7.06591820       0.65847300       1.06572249
C       -5.72701116       1.04388046       1.42392490
H       -7.63752009       0.36787778       1.97001148
H       -7.08664212      -0.20472823       0.38277078
H       -7.62501873       1.47783500       0.58691616
C       -4.83268072       1.21582362       2.36239845
H       -3.82478784       1.55934929       2.22832120
O       -5.03614190       0.99429704       3.75183885
H       -5.94033324       0.61355503       3.89339868
9
Properties=species:S:1:pos:R:3 energy=-724.9647593874139 pbc="F F F"
C       -7.06378441       0.65935008       1.06650750
C       -5.73488858       1.03910221       1.43299789
H       -7.63731400       0.37340744       1.97232160
H       -7.08613760      -0.20715175       0.38650830
H       -7.62212755       1.47872257       0.58451050
C       -4.83099344       1.21762137       2.35794966
H       -3.82385094       1.55907828       2.23189593
O       -5.04136822       1.00509052       3.74843552
H       -5.93558926       0.60114228       3.88417610
9
Properties=species:S:1:pos:R:3 energy=-724.971659129406 pbc="F F F"
C       -7.06206982       0.66009288       1.06739686
C       -5.74150442       1.03478377       1.44119951
H       -7.63718021       0.37908890       1.97481490
H       -7.08572784      -0.20965118       0.39048499
H       -7.61923786       1.47955545       0.58212655
C       -4.82991655       1.21917402       2.35403890
H       -3.82304269       1.55878060       2.23536122
O       -5.04715513       1.01655767       3.74506617
H       -5.93021948       0.58798090       3.87481388
9
Properties=species:S:1:pos:R:3 energy=-724.9731708126541 pbc="F F F"
C       -7.06074373       0.66070917       1.06838984
C       -5.74689274       1.03094074       1.44843803
H       -7.63713043       0.38485393       1.97746092
H       -7.08541565      -0.21219782       0.39465057
H       -7.61638137       1.48032548       0.57978874
C       -4.82939435       1.22050194       2.35070570
H       -3.82234555       1.55846909       2.23867452
O       -5.05356905       1.02854075       3.74173948
H       -5.92418113       0.57421972       3.86545520
9
Properties=species:S:1:pos:R:3 energy=-724.9707734368002 pbc="F F F"
C       -7.05977542       0.66120676       1.06948569
C       -5.75108759       1.02758873       1.45462173
H       -7.63717637       0.39063430       1.98022916
H       -7.08520387      -0.21476297       0.39895478
H       -7.61358979       1.48102447       0.57752150
C       -4.82937112       1.22162551       2.34798954
H       -3.82174194       1.55815656       2.24179328
O       -5.06067644       1.04088204       3.73846410
H       -5.91743145       0.56000759       3.85624323
9
Properties=species:S:1:pos:R:3 energy=-724.965671586929 pbc="F F F"
C       -7.05913416       0.66159345       1.07068367
C       -5.75412303       1.02474335       1.45965887
H       -7.63732976       0.39636177       1.98308915
H       -7.08509532      -0.21731795       0.40334734
H       -7.61089484       1.48164426       0.57534926
C       -4.82979116       1.22256510       2.34592995
H       -3.82121433       1.55785586       2.24467493
O       -5.06854372       1.05342381       3.73524872
H       -5.90992768       0.54549336       3.84732112
9
Properties=species:S:1:pos:R:3 energy=-724.9588414378906 pbc="F F F"
C       -7.05878924       0.66187704       1.07198305
C       -5.75603309       1.02242019       1.46345773
H       -7.63760230       0.40196809       1.98601041
H       -7.08509281      -0.21983406       0.40777797
H       -7.60832825       1.48217666       0.57329646
C       -4.83059877       1.22334111       2.34456642
H       -3.82074514       1.55757980       2.24727692
O       -5.07723734       1.06600830       3.73210200
H       -5.90162707       0.53082586       3.83883205
9
Properties=species:S:1:pos:R:3 energy=-724.9510647857761 pbc="F F F"
C       -7.05870994       0.66206531       1.07338309
C       -5.75685184       1.02063487       1.46592657
H       -7.63800570       0.40738505       1.98896247
H       -7.08519918      -0.22228260       0.41219640
H       -7.60592171       1.48261350       0.57138753
C       -4.83173822       1.22397389       2.34393846
H       -3.82031684       1.55734123       2.24955668
O       -5.08682373       1.07847780       3.72903262
H       -5.89248684       0.51615395       3.83091918
9
Properties=species:S:1:pos:R:3 energy=-724.9429405499218 pbc="F F F"
C       -7.05886555       0.66216607       1.07488304
C       -5.75661331       1.01940299       1.46697368
H       -7.63855169       0.41254439       1.99191484
H       -7.08541724      -0.22463489       0.41655235
H       -7.60370696       1.48294661       0.56964690
C       -4.83315383       1.22448384       2.34408558
H       -3.81991185       1.55715296       2.25147168
O       -5.09736935       1.09067456       3.72604925
H       -5.88246423       0.50162646       3.82372567
9
Properties=species:S:1:pos:R:3 energy=-724.9348632098934 pbc="F F F"
C       -7.05922534       0.66218712       1.07648216
C       -5.75535157       1.01874015       1.46650733
H       -7.63925197       0.41737790       1.99483706
H       -7.08574982      -0.22686222       0.42079555
H       -7.60171571       1.48316780       0.56809901
C       -4.83478987       1.22489132       2.34504728
H       -3.81951263       1.55702783       2.25297934
O       -5.10894061       1.10244086       3.72316057
H       -5.87151649       0.48739225       3.81739470
9
Properties=species:S:1:pos:R:3 energy=-724.9269583855794 pbc="F F F"
C       -7.05975860       0.66213624       1.07817972
C       -5.75310065       1.01866197       1.46443578
H       -7.64011826       0.42181732       1.99769863
H       -7.08619974      -0.22893591       0.42487572
H       -7.59997967       1.48326890       0.56676830
C       -4.83659064       1.22521672       2.34686308
H       -3.81910162       1.55697867       2.25403711
O       -5.12160398       1.11361895       3.72037523
H       -5.85960084       0.47360015       3.81206943
9
Properties=species:S:1:pos:R:3 energy=-724.9189361383051 pbc="F F F"
C       -7.06043411       0.66202309       1.07997347
C       -5.74992363       1.01916745       1.46073858
H       -7.64115396       0.42581046       2.00047343
H       -7.08676411      -0.23083133       0.42875344
H       -7.59852000       1.48324524       0.56567389
C       -4.83848804       1.22548683       2.34952947
H       -3.81864135       1.55702205       2.25461214
O       -5.13540778       1.12407490       3.71766779
H       -5.84672102       0.46036431       3.80788079
9
Properties=species:S:1:pos:R:3 energy=-724.9099947738673 pbc="F F F"
C       -7.06121785       0.66186760       1.08185267
C       -5.74604582       1.02016273       1.45579415
H       -7.64231593       0.42939490       2.00315958
H       -7.08740810      -0.23254661       0.43244992
H       -7.59729882       1.48311174       0.56480531
C       -4.84034461       1.22576446       2.35280235
H       -3.81798287       1.55719548       2.25472595
O       -5.15029913       1.13380792       3.71482178
H       -5.83314088       0.44760478       3.80489130
9
Properties=species:S:1:pos:R:3 energy=-724.8994170953524 pbc="F F F"
C       -7.06207478       0.66169329       1.08380368
C       -5.74174901       1.02152167       1.45011953
H       -7.64354487       0.43263940       2.00576365
H       -7.08808577      -0.23408777       0.43600751
H       -7.59625770       1.48289015       0.56414176
C       -4.84199877       1.22612489       2.35635393
H       -3.81693846       1.55754375       2.25441895
O       -5.16618993       1.14286351       3.71155435
H       -5.81921470       0.43517410       3.80313965
9
Properties=species:S:1:pos:R:3 energy=-724.8869321338999 pbc="F F F"
C       -7.06296992       0.66152370       1.08581281
C       -5.73731501       1.02311810       1.44423192
H       -7.64478144       0.43561277       2.00829222
H       -7.08875116      -0.23546085       0.43946854
H       -7.59533821       1.48260222       0.56366245
C       -4.84328894       1.22664345       2.35985638
H       -3.81532040       1.55811164       2.25373155
O       -5.18299206       1.15128722       3.70758257
H       -5.80529686       0.42292475       3.80266455
9
Properties=species:S:1:pos:R:3 energy=-724.8727924965087 pbc="F F F"
C       -7.06386825       0.66138234       1.08786641
C       -5.73302564       1.02482583       1.43864854
H       -7.64596632       0.43838381       2.01075187
H       -7.08935832      -0.23667190       0.44287537
H       -7.59448190       1.48226969       0.56334657
C       -4.84405352       1.22739544       2.36298184
H       -3.81294095       1.55894396       2.25270419
O       -5.20061737       1.15912460       3.70262353
H       -5.79174173       0.41070922       3.80350467
9
Properties=species:S:1:pos:R:3 energy=-724.857648840822 pbc="F F F"
C       -7.06473475       0.66129276       1.08995080
C       -5.72916271       1.02651869       1.43388657
H       -7.64704019       0.44102133       2.01314918
H       -7.08986130      -0.23772695       0.44627033
H       -7.59363034       1.48191432       0.56317334
C       -4.84413091       1.22845618       2.36540246
H       -3.80961236       1.56008550       2.25137728
O       -5.21897775       1.16642120       3.69639430
H       -5.77890369       0.39837998       3.80569871
9
Properties=species:S:1:pos:R:3 energy=-724.8422008417708 pbc="F F F"
C       -7.06553445       0.66127832       1.09205226
C       -5.72600627       1.02807124       1.43045954
H       -7.64794428       0.44359345       2.01549054
H       -7.09021452      -0.23863204       0.44969518
H       -7.59272556       1.48155773       0.56312200
C       -4.84336027       1.22990054       2.36679111
H       -3.80514918       1.56158043       2.24979133
O       -5.23798431       1.17322177       3.68861681
H       -5.76713516       0.38579157       3.80928423
9
Properties=species:S:1:pos:R:3 energy=-724.8266594626963 pbc="F F F"
C       -7.06623401       0.66135257       1.09415309
C       -5.72372887       1.02940232       1.42866010
H       -7.64865367       0.44612814       2.01777082
H       -7.09039535      -0.23939229       0.45315504
H       -7.59173881       1.48121424       0.56317486
C       -4.84162562       1.23177690       2.36686339
H       -3.79950333       1.56343529       2.24799048
O       -5.25750296       1.17952380       3.67930408
H       -5.75667138       0.37292203       3.81423114
9
Properties=species:S:1:pos:R:3 energy=-724.8107009802524 pbc="F F F"
C       -7.06680267       0.66151393       1.09622943
C       -5.72233655       1.03049937       1.42843861
H       -7.64919588       0.44859103       2.01996708
H       -7.09041663      -0.24001145       0.45659839
H       -7.59068654       1.48088684       0.56331895
C       -4.83888052       1.23409256       2.36540118
H       -3.79283967       1.56559835       2.24602461
O       -5.27732959       1.18525154       3.66892029
H       -5.74756595       0.35994084       3.82040446
9
Properties=species:S:1:pos:R:3 energy=-724.7937179294025 pbc="F F F"
C       -7.06720986       0.66175947       1.09825692
C       -5.72182099       1.03135574       1.42971597
H       -7.64960295       0.45094245       2.02205483
H       -7.09029432      -0.24049315       0.45996877
H       -7.58958910       1.48057754       0.56354172
C       -4.83508451       1.23685132       2.36219208
H       -3.78534138       1.56801284       2.24394405
O       -5.29725404       1.19032289       3.65796846
H       -5.73985685       0.34703391       3.82766020
9
Properties=species:S:1:pos:R:3 energy=-724.7747464301019 pbc="F F F"
C       -7.06742503       0.66208628       1.10021118
C       -5.72217390       1.03196478       1.43241307
H       -7.64990691       0.45314267       2.02400959
H       -7.09004433      -0.24084101       0.46320976
H       -7.58846686       1.48028837       0.56383060
C       -4.83019715       1.24005695       2.35702366
H       -3.77719161       1.57062199       2.24179916
O       -5.31706614       1.19465578       3.64695159
H       -5.73358207       0.33438719       3.83585439
9
Properties=species:S:1:pos:R:3 energy=-724.7522739912857 pbc="F F F"
C       -7.06741764       0.66249145       1.10206784
C       -5.72338696       1.03231984       1.43645080
H       -7.65013980       0.45515200       2.02580687
H       -7.08968260      -0.24105865       0.46626494
H       -7.58734017       1.48002132       0.56417303
C       -4.82417798       1.24371325       2.34968351
H       -3.76857354       1.57336905       2.23964028
O       -5.33655573       1.19816814       3.63637269
H       -5.72877957       0.32218660       3.84484304
9
Properties=species:S:1:pos:R:3 energy=-724.7240131503033 pbc="F F F"
C       -7.06715713       0.66297206       1.10380252
C       -5.72545188       1.03241427       1.44175007
H       -7.65033366       0.45693075       2.02742220
H       -7.08922505      -0.24114971       0.46907786
H       -7.58622938       1.47977843       0.56455646
C       -4.81698655       1.24782398       2.33995921
H       -3.75967034       1.57619725       2.23751777
O       -5.35551267       1.20077790       3.62673475
H       -5.72548735       0.31061807       3.85448215
9
Properties=species:S:1:pos:R:3 energy=-724.6866868425147 pbc="F F F"
C       -7.06662036       0.66352385       1.10539636
C       -5.72833997       1.03224790       1.44821573
H       -7.65051823       0.45844833       2.02883667
H       -7.08868739      -0.24111987       0.47160263
H       -7.58515094       1.47956085       0.56496808
C       -4.80860260       1.25238387       2.32768352
H       -3.75066109       1.57905175       2.23547293
O       -5.37376254       1.20240886       3.61850909
H       -5.72371087       0.29985745       3.86461800
9
Properties=species:S:1:pos:R:3 energy=-724.6361583844866 pbc="F F F"
C       -7.06584311       0.66413181       1.10687424
C       -5.73186093       1.03187202       1.45562516
H       -7.65070505       0.45974667       2.03007580
H       -7.08808365      -0.24099119       0.47387700
H       -7.58409017       1.47936313       0.56539306
C       -4.79916634       1.25731550       2.31304805
H       -3.74169241       1.58189305       2.23347517
O       -5.39141486       1.20303162       3.61191515
H       -5.72319747       0.29000038       3.87501937
9
Properties=species:S:1:pos:R:3 energy=-724.5693722126482 pbc="F F F"
C       -7.06488923       0.66477580       1.10828194
C       -5.73574733       1.03136246       1.46369496
H       -7.65089700       0.46090227       2.03118628
H       -7.08742700      -0.24079354       0.47597861
H       -7.58301760       1.47917662       0.56581565
C       -4.78889449       1.26250710       2.29641552
H       -3.73289545       1.58468896       2.23145962
O       -5.40871453       1.20263905       3.60705229
H       -5.72357137       0.28110428       3.88541813
9
Properties=species:S:1:pos:R:3 energy=-724.4854514978063 pbc="F F F"
C       -7.06382276       0.66543567       1.10966532
C       -5.73973125       1.03079518       1.47214137
H       -7.65109689       0.46199181       2.03221493
H       -7.08673065      -0.24055683       0.47798537
H       -7.58190363       1.47899266       0.56622006
C       -4.77800422       1.26784668       2.27814970
H       -3.72440123       1.58740732       2.22936122
O       -5.42590730       1.20122419       3.60401913
H       -5.72445605       0.27322632       3.89554591
9
Properties=species:S:1:pos:R:3 energy=-724.3859190360439 pbc="F F F"
C       -7.06270774       0.66609125       1.11107028
C       -5.74354482       1.03024616       1.48068062
H       -7.65130754       0.46309202       2.03320856
H       -7.08600779      -0.24031098       0.47997515
H       -7.58071869       1.47880258       0.56659052
C       -4.76671272       1.27322225       2.25861436
H       -3.71634082       1.59001597       2.22711489
O       -5.44323890       1.19878005       3.60291428
H       -5.72547499       0.26642370       3.90513435
9
Properties=species:S:1:pos:R:3 energy=-724.2745278637856 pbc="F F F"
C       -7.06160820       0.66672238       1.11254270
C       -5.74692012       1.02979138       1.48902893
H       -7.65153175       0.46427960       2.03421399
H       -7.08527159      -0.24008591       0.48202584
H       -7.57943318       1.47859772       0.56691124
C       -4.75523719       1.27852181       2.23817328
H       -3.70884524       1.59248277       2.22465555
O       -5.46095508       1.19529967       3.60383637
H       -5.72625165       0.26075358       3.91391509
9
Properties=species:S:1:pos:R:3 energy=-724.1567556650236 pbc="F F F"
C       -7.06058797       0.66730896       1.11412833
C       -5.74958991       1.02950663       1.49690307
H       -7.65177226       0.46563108       2.03527795
H       -7.08453526      -0.23991146       0.48421518
H       -7.57801763       1.47836943       0.56716652
C       -4.74379446       1.28363363       2.21718980
H       -3.70204509       1.59477568       2.22191822
O       -5.47930110       1.19077663       3.60688331
H       -5.72641033       0.25627240       3.92162062
9
Properties=species:S:1:pos:R:3 energy=-724.0385074769104 pbc="F F F"
C       -7.05967894       0.66784213       1.11585101
C       -5.75139260       1.02943827       1.50410497
H       -7.65201821       0.46719610       2.03643271
H       -7.08381056      -0.23980645       0.48659374
H       -7.57645927       1.47811135       0.56734922
C       -4.73254602       1.28848747       2.19595819
H       -3.69599582       1.59688233       2.21885108
O       -5.49844543       1.18529649       3.61203751
H       -5.72570716       0.25291531       3.92812457
9
Properties=species:S:1:pos:R:3 energy=-723.9249439660535 pbc="F F F"
C       -7.05884599       0.66833661       1.11768866
C       -5.75238814       1.02957088       1.51061521
H       -7.65223029       0.46896786       2.03768021
H       -7.08310635      -0.23976661       0.48915517
H       -7.57478036       1.47782187       0.56747025
C       -4.72153723       1.29310006       2.17462777
H       -3.69059533       1.59883159       2.21542997
O       -5.51839549       1.17913763       3.61903925
H       -5.72417481       0.25036313       3.93359651
9
Properties=species:S:1:pos:R:3 energy=-723.8208461922304 pbc="F F F"
C       -7.05804555       0.66881003       1.11961341
C       -5.75266442       1.02988130       1.51643686
H       -7.65236557       0.47093245       2.03901857
H       -7.08243109      -0.23978473       0.49188596
H       -7.57300757       1.47750000       0.56754279
C       -4.71079888       1.29749911       2.15332966
H       -3.68572172       1.60065748       2.21163420
O       -5.53913844       1.17260272       3.62759828
H       -5.72188076       0.24826463       3.93824326
9
Properties=species:S:1:pos:R:3 energy=-723.7296617715276 pbc="F F F"
C       -7.05723407       0.66928008       1.12159738
C       -5.75230928       1.03034635       1.52157300
H       -7.65238113       0.47307597       2.04044592
H       -7.08179327      -0.23985361       0.49477260
H       -7.57116758       1.47714475       0.56758002
C       -4.70036170       1.30171233       2.13219495
H       -3.68125306       1.60239406       2.20744309
O       -5.56066143       1.16599443       3.63742438
H       -5.71889249       0.24626862       3.94227165
9
Properties=species:S:1:pos:R:3 energy=-723.65268341974 pbc="F F F"
C       -7.05636799       0.66976442       1.12361269
C       -5.75141059       1.03094286       1.52602670
H       -7.65223406       0.47538453       2.04196039
H       -7.08120135      -0.23996606       0.49780157
H       -7.56928707       1.47675513       0.56759512
C       -4.69025646       1.30576742       2.11135475
H       -3.67706742       1.60407538       2.20283596
O       -5.58295158       1.15961545       3.64822731
H       -5.71527748       0.24402388       3.94588851
9
Properties=species:S:1:pos:R:3 energy=-723.5892085222479 pbc="F F F"
C       -7.05540373       0.67028071       1.12563148
C       -5.75005622       1.03164764       1.52980102
H       -7.65188145       0.47784422       2.04356010
H       -7.08066381      -0.24011489       0.50095937
H       -7.56739271       1.47633013       0.56760127
C       -4.68051392       1.30969209       2.09094015
H       -3.67304290       1.60573548       2.19779211
O       -5.60599607       1.15376843       3.65971684
H       -5.71110320       0.24117919       3.94930066
9
Properties=species:S:1:pos:R:3 energy=-723.5374434076475 pbc="F F F"
C       -7.05430108       0.67084550       1.12762763
C       -5.74833104       1.03243812       1.53290028
H       -7.65128310       0.48044241       2.04524385
H       -7.08018849      -0.24029371       0.50423357
H       -7.56550936       1.47586914       0.56761043
C       -4.67116201       1.31351235       2.07107519
H       -3.66906165       1.60740730       2.19229332
O       -5.62977916       1.14872786       3.67161719
H       -5.70643810       0.23741403       3.95270154
9
Properties=species:S:1:pos:R:3 energy=-723.495001720647 pbc="F F F"
C       -7.05305846       0.67146238       1.12959535
C       -5.74628527       1.03329864       1.53534317
H       -7.65043051       0.48318135       2.04701827
H       -7.07977584      -0.24050579       0.50762464
H       -7.56364086       1.47537585       0.56762064
C       -4.66219592       1.31723465       2.05180178
H       -3.66505348       1.60911088       2.18634982
O       -5.65425201       1.14444052       3.68382056
H       -5.70136165       0.23276451       3.95612877
9
Properties=species:S:1:pos:R:3 energy=-723.4593630472332 pbc="F F F"
C       -7.05169924       0.67212658       1.13154204
C       -5.74394675       1.03421801       1.53715767
H       -7.64933563       0.48607289       2.04889504
H       -7.07942154      -0.24076061       0.51114130
H       -7.56177745       1.47485675       0.56762088
C       -4.65358967       1.32085279       2.03310883
H       -3.66097891       1.61085794       2.17999025
O       -5.67934432       1.14064180       3.69632750
H       -5.69596049       0.22749683       3.95951948
9
Properties=species:S:1:pos:R:3 energy=-723.4283370417194 pbc="F F F"
C       -7.05024723       0.67283320       1.13347527
C       -5.74134295       1.03518509       1.53837191
H       -7.64801075       0.48912902       2.05088593
H       -7.07912120      -0.24106773       0.51479245
H       -7.55990917       1.47431838       0.56760002
C       -4.64531694       1.32436038       2.01498438
H       -3.65679894       1.61266007       2.17324352
O       -5.70498548       1.13706355       3.70914040
H       -5.69032134       0.22188104       3.96280913
9
Properties=species:S:1:pos:R:3 energy=-723.4001735640223 pbc="F F F"
C       -7.04872621       0.67357733       1.13540263
C       -5.73850134       1.03618878       1.53901402
H       -7.64646813       0.49236175       2.05300272
H       -7.07887042      -0.24143674       0.51858695
H       -7.55802605       1.47376727       0.56754689
C       -4.63735142       1.32775101       1.99741646
H       -3.65247461       1.61452884       2.16613855
O       -5.73110485       1.13343761       3.72226162
H       -5.68453096       0.21618716       3.96593316
9
Properties=species:S:1:pos:R:3 energy=-723.3735759324087 pbc="F F F"
C       -7.04715998       0.67435405       1.13733171
C       -5.73544939       1.03721794       1.53911212
H       -7.64472008       0.49578307       2.05525717
H       -7.07866481      -0.24187721       0.52253369
H       -7.55611810       1.47320995       0.56745037
C       -4.62966679       1.33101827       1.98039311
H       -3.64796695       1.61647585       2.15870428
O       -5.75763181       1.12949584       3.73569355
H       -5.67867609       0.21068524       3.96882701
9
Properties=species:S:1:pos:R:3 energy=-723.3476676875605 pbc="F F F"
C       -7.04557234       0.67515845       1.13927009
C       -5.73221456       1.03826146       1.53869436
H       -7.64277887       0.49940499       2.05766104
H       -7.07849997      -0.24239870       0.52664153
H       -7.55417537       1.47265295       0.56729929
C       -4.62223672       1.33415577       1.96390235
H       -3.64323699       1.61851266       2.15096963
O       -5.78449574       1.12497018       3.74943855
H       -5.67284343       0.20564524       3.97142616
9
Properties=species:S:1:pos:R:3 energy=-723.3220094883003 pbc="F F F"
C       -7.04399681       0.67598248       1.14121775
C       -5.72881858       1.03931025       1.53778951
H       -7.64065068       0.50323242       2.06021896
H       -7.07837267      -0.24300717       0.53091155
H       -7.55219271       1.47210143       0.56708581
C       -4.61503972       1.33715849       1.94793322
H       -3.63825203       1.62064858       2.14296543
O       -5.81163384       1.11967727       3.76349774
H       -5.66709695       0.20125926       3.97368303
9
Properties=species:S:1:pos:R:3 energy=-723.2966521963771 pbc="F F F"
C       -7.04249488       0.67680900       1.14315283
C       -5.72526661       1.04036105       1.53642831
H       -7.63832418       0.50725001       2.06291499
H       -7.07828303      -0.24369812       0.53532243
H       -7.55017886       1.47155653       0.56681150
C       -4.60806807       1.34002537       1.93247751
H       -3.63299749       1.62288633       2.13472798
O       -5.83900577       1.11367745       3.77786863
H       -5.66143511       0.19749537       3.97559882
9
Properties=species:S:1:pos:R:3 energy=-723.271831395602 pbc="F F F"
C       -7.04113304       0.67761929       1.14504955
C       -5.72156087       1.04141164       1.53464180
H       -7.63578487       0.51143875       2.06572954
H       -7.07823174      -0.24446517       0.53984883
H       -7.54814503       1.47101870       0.56647964
C       -4.60131655       1.34275609       1.91752754
H       -3.62746198       1.62522744       2.12629456
O       -5.86657525       1.10707461       3.79254810
H       -5.65584467       0.19428165       3.97718344
9
Properties=species:S:1:pos:R:3 energy=-723.2478535761018 pbc="F F F"
C       -7.03997777       0.67839459       1.14688216
C       -5.71770357       1.04245982       1.53246104
H       -7.63301830       0.51577965       2.06864299
H       -7.07821953      -0.24530197       0.54446540
H       -7.54610243       1.47048837       0.56609350
C       -4.59477994       1.34535029       1.90307564
H       -3.62163413       1.62767345       2.11770245
O       -5.89430595       1.09997264       3.80753301
H       -5.65031238       0.19154616       3.97844681
9
Properties=species:S:1:pos:R:3 energy=-723.2250232785711 pbc="F F F"
C       -7.03909555       0.67911617       1.14862489
C       -5.71369693       1.04350336       1.52991708
H       -7.63000998       0.52025370       2.07163575
H       -7.07824711      -0.24620214       0.54914682
H       -7.54406229       1.46996599       0.56565634
C       -4.58845299       1.34780763       1.88911412
H       -3.61550257       1.63022591       2.10898894
O       -5.92216158       1.09247541       3.82282023
H       -5.64482501       0.18921697       3.97939883
9
Properties=species:S:1:pos:R:3 energy=-723.203563231866 pbc="F F F"
C       -7.03855288       0.67976529       1.15025195
C       -5.70954316       1.04454006       1.52704098
H       -7.62674544       0.52484190       2.07468822
H       -7.07831518      -0.24715933       0.55386774
H       -7.54203580       1.46945199       0.56517146
C       -4.58233048       1.35012779       1.87563530
H       -3.60905593       1.63288635       2.10019130
O       -5.95010583       1.08468682       3.83840662
H       -5.63936931       0.18722213       3.98004943
9
Properties=species:S:1:pos:R:3 energy=-723.183529451864 pbc="F F F"
C       -7.03841624       0.68032319       1.15173760
C       -5.70524448       1.04556769       1.52386379
H       -7.62321019       0.52952525       2.07778080
H       -7.07842445      -0.24816717       0.55860283
H       -7.54003419       1.46894682       0.56464210
C       -4.57640718       1.35231041       1.86263149
H       -3.60228282       1.63565633       2.09134681
O       -5.97810240       1.07671075       3.85428906
H       -5.63393205       0.18548972       3.98040851
9
Properties=species:S:1:pos:R:3 energy=-723.1647238687043 pbc="F F F"
C       -7.03875210       0.68077115       1.15305605
C       -5.70080311       1.04658405       1.52041657
H       -7.61938977       0.53428476       2.08089388
H       -7.07857564      -0.24921929       0.56332676
H       -7.53806868       1.46845092       0.56407156
C       -4.57067785       1.35435517       1.85009501
H       -3.59517189       1.63853737       2.08249276
O       -6.00611498       1.06865108       3.87046441
H       -5.62849997       0.18394779       3.98048600
9
Properties=species:S:1:pos:R:3 energy=-723.146610582723 pbc="F F F"
C       -7.03962697       0.68109043       1.15418153
C       -5.69622125       1.04758692       1.51673037
H       -7.61526970       0.53910142       2.08400787
H       -7.07876945      -0.25030932       0.56801418
H       -7.53615047       1.46796472       0.56346309
C       -4.56513728       1.35626171       1.83801819
H       -3.58771176       1.64153103       2.07366642
O       -6.03410727       1.06061169       3.88692955
H       -5.62305986       0.18252440       3.98029181
9
Properties=species:S:1:pos:R:3 energy=-723.1282360784446 pbc="F F F"
C       -7.04110731       0.68126227       1.15508829
C       -5.69150113       1.04857409       1.51283625
H       -7.61083550       0.54395624       2.08710315
H       -7.07900660      -0.25143091       0.57263976
H       -7.53429078       1.46748867       0.56281997
C       -4.55978023       1.35802970       1.82639333
H       -3.57989105       1.64463883       2.06490507
O       -6.06204296       1.05269649       3.90368133
H       -5.61759845       0.18114763       3.97983584
9
Properties=species:S:1:pos:R:3 energy=-723.1081668888179 pbc="F F F"
C       -7.04325962       0.68126793       1.15575055
C       -5.68664495       1.04954334       1.50876526
H       -7.60607270       0.54883021       2.09016014
H       -7.07928779      -0.25257769       0.57717816
H       -7.53250083       1.46702321       0.56214548
C       -4.55460146       1.35965880       1.81521275
H       -3.57169839       1.64786233       2.05624600
O       -6.08988575       1.04500934       3.92071664
H       -5.61210251       0.17974553       3.97912802
9
Properties=species:S:1:pos:R:3 energy=-723.08443806014 pbc="F F F"
C       -7.04615039       0.68108869       1.15614254
C       -5.68165494       1.05049245       1.50454846
H       -7.60096682       0.55370433       2.09315922
H       -7.07961375      -0.25374329       0.58160405
H       -7.53079182       1.46656878       0.56144288
C       -4.54959575       1.36114866       1.80446878
H       -3.56312240       1.65120306       2.04772649
O       -6.11759933       1.03765414       3.93803233
H       -5.60655880       0.17824617       3.97817826
9
Properties=species:S:1:pos:R:3 energy=-723.0545440940389 pbc="F F F"
C       -7.04984609       0.68070579       1.15623849
C       -5.67653331       1.05141922       1.50021690
H       -7.59550338       0.55855961       2.09608081
H       -7.07998516      -0.25492134       0.58589208
H       -7.52917498       1.46612582       0.56071545
C       -4.54475787       1.36249896       1.79415372
H       -3.55415172       1.65466257       2.03938381
O       -6.14514739       1.03073476       3.95562527
H       -5.60095409       0.17657761       3.97699648
