22
Properties=species:S:1:pos:R:3 energy=-2165.278190234324 pbc="F F F"
O       -1.79687146       1.89362391       2.53552063
C       -0.93196111       1.80384075       1.79880035
C       -0.43671167       2.77555934      -0.22850586
C        0.81057972       2.06286057      -0.47285970
C        0.76527826       0.55541113      -0.17278249
C       -0.47164514      -0.13299442      -0.80830478
H       -0.38091931      -1.23955420      -0.66939473
C       -0.64481548       0.21613183      -2.30454712
O       -1.38344998       1.10414686      -2.66469603
C        0.16473697      -0.57147384      -3.28255769
H       -2.63371950      -0.22451995       1.30116063
H       -1.41655120       2.30721319      -0.44490231
H       -0.39680289       3.86755551      -0.26659022
H        1.03729927       2.19334716      -1.57685632
H        1.67748430       2.52751339       0.04032271
H        1.72548356       0.07068145      -0.43574594
H        0.65914276       0.40775706       0.92998647
H       -0.41439987      -1.37509603      -3.73243800
H        0.47295395       0.05112931      -4.12736121
H        1.05497050      -1.03344084      -2.87595585
O       -2.17701609      -0.84150053       0.73224118
O       -1.62451859       0.36333236      -0.20290570
