6
Properties=species:S:1:pos:R:3 energy=-4168.432550325018 pbc="F F F"
C        1.04221900      -0.08502000       0.05363800
C        0.86038600       1.29809600       0.46981600
O        0.43786800       1.95935600       1.33440200
H        0.53531400      -0.27043800      -0.90879100
H        0.65800200      -0.81295900       0.78472300
H        2.11108600      -0.30277400      -0.11282900
