19
Properties=species:S:1:pos:R:3 energy=-11513.888323583285 pbc="F F F"
O        0.72569100      -0.10017300       0.76398200
C        1.89266000       0.13336700       0.54569400
C        2.81638700       0.64475700       1.63670300
C        3.95194400      -0.33601200       1.93860100
C        4.84655300      -0.64442200       0.72311400
C        5.46023600       0.57671800       0.16831300
H        6.16924200       1.13318500       0.76071600
C        5.07761800       1.05414600      -1.16992000
O        4.02210600       0.73805100      -1.69805300
C        6.04703200       1.92166700      -1.84018700
H        6.72845000       2.54689100      -1.30267500
H        6.07367000       1.95911200      -2.91354700
H        2.35144400       0.00423300      -0.45178400
H        3.22101800       1.63013900       1.33061300
H        2.23234600       0.83384300       2.56211400
H        4.56954700       0.07164000       2.76401000
H        3.52748700      -1.28809500       2.31963100
H        5.64521500      -1.35760800       1.02946000
H        4.25314700      -1.18121700      -0.05223400
