22
Properties=species:S:1:pos:R:3 energy=-15622.4631210069 pbc="F F F"
O       -0.93991797       2.42209273       2.92976826
C       -0.87668210       1.73871269       1.96107891
C       -0.11772168       1.88060259       0.68757945
C        1.05931220       0.90099446       0.61370373
C        0.66426197      -0.57242828       0.77889015
C       -0.42948191      -1.07395019      -0.16029812
H       -0.55652461      -2.17302473      -0.06158448
C       -0.21307726      -0.64588236      -1.61557554
O       -0.60783155       0.41104618      -2.04474565
C        0.52978935      -1.64178540      -2.45442755
H       -1.60215349       0.62909984       1.93421652
H       -0.80863319       1.68860473      -0.17910997
H        0.24003447       2.92401746       0.56247069
H        1.56951135       1.04862060      -0.36154225
H        1.81009221       1.16067913       1.38870586
H        1.56689949      -1.20590963       0.66374911
H        0.30893885      -0.74964314       1.82144520
H       -0.09977308      -2.51277451      -2.69011691
H        0.82967746      -1.20231879      -3.41935487
H        1.43723502      -2.01686465      -1.96579894
O       -2.00062695      -0.51918553       1.44633453
O       -1.76332856      -0.49070319       0.16461184
