22
Properties=species:S:1:pos:R:3 energy=-13591.941102761497 pbc="F F F"
C        3.44795000      -1.18008000       2.01192300
C        2.32170500      -0.68356100       1.09280300
C        2.47136900      -1.17378300      -0.35887100
C        2.36300200      -2.63470900      -0.48219900
C        4.22145500      -3.02848200       3.55644500
C        3.07653800      -2.47107600       2.74412400
H        4.37101100      -1.34221600       1.41211100
H        3.69578900      -0.39272300       2.75022000
H        1.33364100      -0.98314900       1.49145100
H        2.31678400       0.42502900       1.08791500
H        1.71368000      -0.67553200      -0.99989800
H        3.46754100      -0.85476600      -0.75562400
C        1.14452800      -3.44642000      -0.57289400
H        5.23632600      -2.75847500       3.22346500
H        2.19230500      -2.31749400       3.39623000
H        2.75955400      -3.24944800       2.01447500
H        0.57886600      -3.21802900      -1.49168600
H        0.47192500      -3.25352600       0.27928100
H        1.35695900      -4.52782900      -0.58527500
O        4.03500000      -3.74631000       4.51410700
O        4.59589300      -2.91359100      -0.46012500
O        3.50746700      -3.45593500      -0.53191700
