22
Properties=species:S:1:pos:R:3 energy=-13591.201734409373 pbc="F F F"
C        1.26631963       1.45280280      -0.00004542
C        0.16551102       1.34317849      -1.05931088
C       -0.10893794      -0.12385146      -1.39445580
C       -0.62655662      -0.94257187      -0.24760630
C        0.62149861      -0.71620333       1.20500728
C        0.83078582       0.79269374       1.30634295
H        2.19491993       0.96242518      -0.36390280
H        1.52413776       2.51343298       0.17684572
H       -0.75957799       1.83946969      -0.70989617
H        0.47144465       1.87988858      -1.97872152
H       -0.82741254      -0.19263321      -2.23781599
H        0.83999929      -0.60048960      -1.75368999
C       -2.03129293      -0.78919179       0.22675565
H       -0.01989167      -1.12385007       2.00691222
H        1.61196792       0.95577106       2.08042131
H       -0.08845337       1.27246587       1.69112259
H       -2.75004015      -0.77216708      -0.60599851
H       -2.15737573       0.15704056       0.77559758
H       -2.33455152      -1.60247336       0.90318457
O        1.59619519      -1.46265290       0.82802397
O        0.87935015      -2.52060372      -0.57566147
O       -0.29803948      -2.32248056      -0.27310898
