9
Properties=species:S:1:pos:R:3 energy=-5230.2148634149025 pbc="F F F"
C       -5.98615800       0.11007600       2.21313300
C       -6.18580700      -0.70787500       3.48854200
H       -6.92166800       0.60074700       1.91955500
H       -5.66755100      -0.53497700       1.38596800
H       -5.22259900       0.86833800       2.39618600
C       -7.14179600      -1.76503900       3.43948500
H       -7.70327000      -1.98222900       2.53882900
O       -5.53349300      -0.46048300       4.54457600
H       -7.30830400      -2.36370800       4.32639600
