9
Properties=species:S:1:pos:R:3 energy=-5226.870326399875 pbc="F F F"
C        0.14807195       0.59823236      -1.10705150
C        0.04465855      -0.01980741       0.21269855
H       -0.46505645       0.07589329      -1.85773116
H        1.19147710       0.60044158      -1.46795751
H       -0.17732700       1.65296241      -1.08232531
C       -0.52017959      -1.00264118       0.88934614
H       -1.11488318      -1.83428860       1.04725501
O        0.73710148       0.47589965       1.31893762
H        0.15613715      -0.54669210       2.04682816
