9
Properties=species:S:1:pos:R:3 energy=-725.6979503477046 pbc="F F F"
C        0.98748600      -0.14150900       0.03384100
C        0.41212100      -1.54769700      -0.13097400
O       -0.45566000      -2.00751800       0.66742500
C        0.89536600      -2.32324700      -1.22592700
H        1.63798200      -1.93572900      -1.91291800
H        0.50829500      -3.32410800      -1.37150300
H        0.52882500       0.32733300       0.90637200
H        0.78208700       0.46624300      -0.85522300
H        2.07421700      -0.18281900       0.17265000
9
Properties=species:S:1:pos:R:3 energy=-725.7313117964177 pbc="F F F"
C        0.98656389      -0.13999170       0.04255603
C        0.42869103      -1.54174795      -0.12813073
O       -0.42709304      -2.01249801       0.67216868
C        0.89061309      -2.33650084      -1.23732317
H        1.63773451      -1.97764292      -1.92993946
H        0.48316681      -3.32896988      -1.39341568
H        0.51539976       0.35678105       0.89942163
H        0.78872093       0.46321715      -0.85747869
H        2.06692202      -0.15169791       0.21588439
9
Properties=species:S:1:pos:R:3 energy=-725.7364475577523 pbc="F F F"
C        0.98639985      -0.13473698       0.05227012
C        0.44434047      -1.54011485      -0.12723405
O       -0.39874969      -2.01653006       0.67734222
C        0.88591083      -2.35016582      -1.24887962
H        1.63743588      -2.01912965      -1.94687676
H        0.45830611      -3.33409229      -1.41556082
H        0.50194582       0.38763912       0.89267657
H        0.79534487       0.45888363      -0.85902072
H        2.05978486      -0.12080410       0.25902605
9
Properties=species:S:1:pos:R:3 energy=-725.7181177631659 pbc="F F F"
C        0.98696978      -0.12586493       0.06289932
C        0.45899165      -1.54269362      -0.12817809
O       -0.37071626      -2.01960667       0.68286305
C        0.88127674      -2.36419464      -1.26056331
H        1.63708763      -2.06001226      -1.96365278
H        0.43381675      -3.33944868      -1.43783792
H        0.48853442       0.41976385       0.88612914
H        0.80193391       0.45326724      -0.85980741
H        2.05282437      -0.09026128       0.30189100
9
Properties=species:S:1:pos:R:3 energy=-725.6740241545397 pbc="F F F"
C        0.98824958      -0.11349565       0.07435970
C        0.47256690      -1.54938016      -0.13085703
O       -0.34307902      -2.02172036       0.68864857
C        0.87672834      -2.37854001      -1.27234118
H        1.63669126      -2.10011383      -1.98019043
H        0.40980256      -3.34501251      -1.46014650
H        0.47523681       0.45301189       0.87977170
H        0.80846316       0.44639279      -0.85979708
H        2.04605941      -0.06019317       0.34429523
9
Properties=species:S:1:pos:R:3 energy=-725.5967762539586 pbc="F F F"
C        0.99021512      -0.09774921       0.08656731
C        0.48498856      -1.56007038      -0.13516501
O       -0.31592429      -2.02286365       0.69461622
C        0.87228316      -2.39315464      -1.28418016
H        1.63624829      -2.13925741      -1.99641257
H        0.38636740      -3.35075720      -1.48238608
H        0.46212423       0.48723988       0.87359659
H        0.81490771       0.43828508      -0.85894808
H        2.03950881      -0.03072346       0.38605477
9
Properties=species:S:1:pos:R:3 energy=-725.4766640824488 pbc="F F F"
C        0.99284232      -0.07874571       0.09943821
C        0.49617898      -1.57466021      -0.14099620
O       -0.28933834      -2.02302906       0.70068341
C        0.86795870      -2.40799123      -1.29604719
H        1.63576025      -2.17726609      -2.01224210
H        0.36361510      -3.35665621      -1.50445618
H        0.44926792       0.52230449       0.86759615
H        0.82124264       0.42896890      -0.85721872
H        2.03319142      -0.00197588       0.42698562
9
Properties=species:S:1:pos:R:3 energy=-725.3046055227189 pbc="F F F"
C        0.99610705      -0.05660525       0.11288847
C        0.50606047      -1.59304554      -0.14824475
O       -0.26340747      -2.02220910       0.70676757
C        0.86377250      -2.42300250      -1.30790923
H        1.63522865      -2.21396292      -2.02760191
H        0.34164952      -3.36268298      -1.52625631
H        0.43673913       0.55806235       0.86176272
H        0.82744306       0.41846908      -0.85456734
H        2.02712609       0.02592587       0.46690379
9
Properties=species:S:1:pos:R:3 energy=-725.0746344689456 pbc="F F F"
C        0.99998520      -0.03144790       0.12683414
C        0.51455539      -1.61512229      -0.15680482
O       -0.23821797      -2.02039631       0.71278611
C        0.85974207      -2.43814116      -1.31973322
H        1.63465500      -2.24917099      -2.04241488
H        0.32057449      -3.36881096      -1.54768600
H        0.42460910       0.59437012       0.85608864
H        0.83348406       0.40681041      -0.85095227
H        2.02133166       0.05285808       0.50562529
9
Properties=species:S:1:pos:R:3 energy=-724.7854750065441 pbc="F F F"
C        1.00445268      -0.00339375       0.14119128
C        0.52158607      -1.64078638      -0.16657057
O       -0.21385614      -2.01758320       0.71865646
C        0.85588493      -2.45335990      -1.33148608
H        1.63404082      -2.28271336      -2.05660389
H        0.30049386      -3.37501359      -1.56864475
H        0.41294907       0.63108445       0.85056626
H        0.83934073       0.39401769      -0.84633183
H        2.01582699       0.07869704       0.54296612
9
Properties=species:S:1:pos:R:3 energy=-724.4410309794587 pbc="F F F"
C        1.00948537       0.02743710       0.15587596
C        0.52707484      -1.66993371      -0.17743615
O       -0.19040827      -2.01376229       0.72429603
C        0.85221860      -2.46861144      -1.34313478
H        1.63338763      -2.31441309      -2.07009185
H        0.28151147      -3.38126432      -1.58903209
H        0.40183030       0.66806199       0.84518793
H        0.84498816       0.38011573      -0.84066435
H        2.01063091       0.10331904       0.57874230
9
Properties=species:S:1:pos:R:3 energy=-724.0499141034568 pbc="F F F"
C        1.01505917       0.06092456       0.17080423
C        0.53094404      -1.70246020      -0.18929573
O       -0.16796065      -2.00892610       0.72962226
C        0.84876060      -2.48384849      -1.35464624
H        1.63269695      -2.34409326      -2.08280163
H        0.26373116      -3.38753658      -1.60874752
H        0.39132402       0.70515937       0.83994597
H        0.85040145       0.36512933      -0.83390817
H        2.00576227       0.12660036       0.61276984
9
Properties=species:S:1:pos:R:3 energy=-723.6244309018772 pbc="F F F"
C        1.02114996       0.09694855       0.18589215
C        0.53311600      -1.73826175      -0.20204345
O       -0.14659958      -2.00306715       0.73455255
C        0.84552844      -2.49902376      -1.36598742
H        1.63197029      -2.37157694      -2.09465612
H        0.24725679      -3.39380383      -1.62769058
H        0.38150148       0.74223327       0.83483274
H        0.85555570       0.34908330      -0.82602162
H        2.00123992       0.14841731       0.64486474
9
Properties=species:S:1:pos:R:3 energy=-723.2120579117903 pbc="F F F"
C        1.02773364       0.13538898       0.20105578
C        0.53351307      -1.77723428      -0.21557348
O       -0.12641134      -1.99617796       0.73900433
C        0.84253966      -2.51408995      -1.37712525
H        1.63120917      -2.39668720      -2.10557820
H        0.23219219      -3.40003951      -1.64576077
H        0.37243392       0.77914031       0.82984058
H        0.86042599       0.33200244      -0.81696301
H        1.99708270       0.16864616       0.67484301
9
Properties=species:S:1:pos:R:3 energy=-723.2393131448074 pbc="F F F"
C        1.03476978       0.17605776       0.21620910
C        0.53210790      -1.81918207      -0.22975170
O       -0.10744116      -1.98829166       0.74288334
C        0.83979713      -2.52902579      -1.38804127
H        1.63041538      -2.41931972      -2.11551789
H        0.21859513      -3.40622946      -1.66288914
H        0.36419500       0.81578616       0.82491861
H        0.86499507       0.31392348      -0.80666310
H        1.99328478       0.18723032       0.70259505
9
Properties=species:S:1:pos:R:3 energy=-723.4607389456922 pbc="F F F"
C        1.04212653       0.21838628       0.23125435
C        0.52915476      -1.86339664      -0.24428577
O       -0.08950447      -1.97966862       0.74602989
C        0.83722177      -2.54395567      -1.39879871
H        1.62959235      -2.43977658      -2.12457691
H        0.20626557      -3.41242896      -1.67918312
H        0.35687189       0.85235064       0.81977405
H        0.86928846       0.29494989      -0.79489828
H        1.98970215       0.20448864       0.72842749
9
Properties=species:S:1:pos:R:3 energy=-723.6915577394007 pbc="F F F"
C        1.04964033       0.26167366       0.24608971
C        0.52500583      -1.90899126      -0.25882838
O       -0.07233679      -1.97064818       0.74826158
C        0.83470603      -2.55905457      -1.40948918
H        1.62874402      -2.45850109      -2.13290976
H        0.19491381      -3.41871737      -1.69481146
H        0.35055645       0.88910891       0.81403007
H        0.87334655       0.27520836      -0.78139127
H        1.98614277       0.22087054       0.75279168
9
Properties=species:S:1:pos:R:3 energy=-723.901975653003 pbc="F F F"
C        1.05714754       0.30521890       0.26061337
C        0.52001337      -1.95507902      -0.27303213
O       -0.05567358      -1.96156978       0.74939597
C        0.83214234      -2.57449754      -1.42020433
H        1.62787437      -2.47593675      -2.14067097
H        0.18425008      -3.42517413      -1.70994298
H        0.34534055       0.92633623       0.80730972
H        0.87720976       0.25482556      -0.76586474
H        1.98241458       0.23682555       0.77613908
9
Properties=species:S:1:pos:R:3 energy=-724.0745830258437 pbc="F F F"
C        1.06448454       0.34832096       0.27472349
C        0.51452964      -2.00077302      -0.28654965
O       -0.03925029      -1.95277287       0.74925062
C        0.82942310      -2.59045965      -1.43103581
H        1.62698736      -2.49252703      -2.14801508
H        0.17398461      -3.43187863      -1.72474650
H        0.34131605       0.96430783       0.79923608
H        0.88091850       0.23392821      -0.74804136
H        1.97832548       0.25280320       0.79892120
9
Properties=species:S:1:pos:R:3 energy=-724.2033812405342 pbc="F F F"
C        1.07148772       0.39027884       0.28831826
C        0.50890692      -2.04518633      -0.29903353
O       -0.02280237      -1.94459687       0.74764311
C        0.82644073      -2.60711594      -1.44207526
H        1.62608695      -2.50871539      -2.15509663
H        0.16382763      -3.43891030      -1.73939083
H        0.33857483       1.00329896       0.78943220
H        0.88451318       0.21264300      -0.72764382
H        1.97368340       0.26925303       0.82158951
9
Properties=species:S:1:pos:R:3 energy=-724.2919118061682 pbc="F F F"
C        1.07799407       0.43039526       0.30129717
C        0.50349647      -2.08743706      -0.31014014
O       -0.00606704      -1.93737922       0.74439387
C        0.82308853      -2.62463925      -1.45341310
H        1.62517687      -2.52494348      -2.16206942
H        0.15349088      -3.44634738      -1.75404361
H        0.33720782       1.04358112       0.77752408
H        0.88803392       0.19109716      -0.70439895
H        1.96829748       0.28662185       0.84459311
9
Properties=species:S:1:pos:R:3 energy=-724.3499907753826 pbc="F F F"
C        1.08387881       0.46819772       0.31363914
C        0.49858911      -2.12694357      -0.31974999
O        0.01111270      -1.93133715       0.73949660
C        0.81931181      -2.64307073      -1.46506576
H        1.62424680      -2.54154203      -2.16904283
H        0.14277713      -3.45419834      -1.76880194
H        0.33724957       1.08520005       0.76331383
H        0.89150332       0.16944957      -0.67828404
H        1.96204975       0.30519347       0.86823798
9
Properties=species:S:1:pos:R:3 energy=-724.3875664183454 pbc="F F F"
C        1.08907631       0.50356210       0.32544619
C        0.49438197      -2.16358969      -0.32809101
O        0.02872987      -1.92650158       0.73321348
C        0.81513659      -2.66224728      -1.47693498
H        1.62326461      -2.55866993      -2.17605741
H        0.13163024      -3.46236347      -1.78365351
H        0.33864729       1.12785159       0.74687648
H        0.89491683       0.14790822      -0.64966455
H        1.95493529       0.32499905       0.89260832
9
Properties=species:S:1:pos:R:3 energy=-724.4118941904948 pbc="F F F"
C        1.09352604       0.53639425       0.33683091
C        0.49106416      -2.19729926      -0.33542105
O        0.04676337      -1.92288741       0.72582978
C        0.81059579      -2.68198828      -1.48891266
H        1.62219633      -2.57647128      -2.18314776
H        0.12000623      -3.47073376      -1.79857665
H        0.34134066       1.17120147       0.72831055
H        0.89826757       0.12668528      -0.61893933
H        1.94695885       0.34604799       0.91776921
9
Properties=species:S:1:pos:R:3 energy=-724.4280235530697 pbc="F F F"
C        1.09716748       0.56660002       0.34790591
C        0.48882474      -2.22799612      -0.34199794
O        0.06519212      -1.92050952       0.71763078
C        0.80572237      -2.70211310      -1.50089067
H        1.62100797      -2.59509018      -2.19034851
H        0.10786108      -3.47920022      -1.81354967
H        0.34526935       1.21491545       0.70771458
H        0.90154866       0.10599296      -0.58650723
H        1.93812523       0.36834971       0.94378575
9
Properties=species:S:1:pos:R:3 energy=-724.4394537641876 pbc="F F F"
C        1.09994011       0.59408526       0.35878378
C        0.48785281      -2.25560412      -0.34807951
O        0.08399504      -1.91938281       0.70890178
C        0.80054927      -2.72244110      -1.51276091
H        1.61966553      -2.61467074      -2.19769428
H        0.09515081      -3.48765383      -1.82855087
H        0.35037306       1.25865925       0.68518709
H        0.90475320       0.08604345      -0.55276711
H        1.92843918       0.39191363       0.97072303
9
Properties=species:S:1:pos:R:3 energy=-724.4486568191586 pbc="F F F"
C        1.10178339       0.61875582       0.36957712
C        0.48833745      -2.28004712      -0.35392362
O        0.10315103      -1.91952217       0.69992804
C        0.79510942      -2.74279164      -1.52441525
H        1.61813503      -2.63535704      -2.20521967
H        0.08183141      -3.49598558      -1.84355857
H        0.35659145       1.30209863       0.66082659
H        0.90787432       0.06704893      -0.51811780
H        1.91790551       0.41674916       0.99864616
9
Properties=species:S:1:pos:R:3 energy=-724.4573914905853 pbc="F F F"
C        1.10265391       0.64056339       0.38039242
C        0.49043703      -2.30128894      -0.35977233
O        0.12263840      -1.92092772       0.69097332
C        0.78943684      -2.76299289      -1.53575334
H        1.61638180      -2.65727032      -2.21295115
H        0.06787396      -3.50408841      -1.85854859
H        0.36387350       1.34489409       0.63472984
H        0.91090352       0.04920732      -0.48292475
H        1.90652006       0.44285248       1.02759757
9
Properties=species:S:1:pos:R:3 energy=-724.4666169470534 pbc="F F F"
C        1.10264427       0.65982384       0.39128765
C        0.49406595      -2.31961103      -0.36574261
O        0.14243057      -1.92348223       0.68213037
C        0.78357407      -2.78294288      -1.54673631
H        1.61436573      -2.68035027      -2.22085050
H        0.05336917      -3.51187067      -1.87347693
H        0.37224184       1.38666459       0.60697941
H        0.91381939       0.03260292      -0.44728799
H        1.89420800       0.47011473       1.05743992
9
Properties=species:S:1:pos:R:3 energy=-724.4763162968054 pbc="F F F"
C        1.10191190       0.67702666       0.40229763
C        0.49902231      -2.33544628      -0.37189176
O        0.16249867      -1.92701251       0.67341037
C        0.77756770      -2.80257297      -1.55735468
H        1.61204415      -2.70444998      -2.22884863
H        0.03846482      -3.51924804      -1.88829017
H        0.38175427       1.42700927       0.57765116
H        0.91659443       0.01726592      -0.41118100
H        1.88086075       0.49837693       1.08795008
9
Properties=species:S:1:pos:R:3 energy=-724.4859303982206 pbc="F F F"
C        1.10061463       0.69266242       0.41345703
C        0.50510346      -2.34922852      -0.37827672
O        0.18281378      -1.93134502       0.66482403
C        0.77146436      -2.82181472      -1.56759910
H        1.60937436      -2.72942200      -2.23687625
H        0.02330904      -3.52613625      -1.90293482
H        0.39246877       1.46552714       0.54682087
H        0.91920106       0.00322614      -0.37457647
H        1.86636954       0.52747982       1.11890443
9
Properties=species:S:1:pos:R:3 energy=-724.4948466473388 pbc="F F F"
C        1.09891029       0.70722168       0.42480054
C        0.51210676      -2.36139159      -0.38495441
O        0.20334700      -1.93630623       0.65638205
C        0.76531068      -2.84059970      -1.57746025
H        1.60631364      -2.75511890      -2.24486409
H        0.00804996      -3.53245105      -1.91735739
H        0.40444336       1.50181723       0.51456436
H        0.92161171      -0.00948656      -0.33744710
H        1.85062558       0.55726412       1.15007931
9
Properties=species:S:1:pos:R:3 energy=-724.5027591136901 pbc="F F F"
C        1.09695671       0.72119503       0.43636283
C        0.51982958      -2.37236930      -0.39198178
O        0.22406944      -1.94172259       0.64809512
C        0.75915329      -2.85885946      -1.58692880
H        1.60281930      -2.78139324      -2.25274287
H       -0.00716429      -3.53810817      -1.93150440
H        0.41773604       1.53547856       0.48095741
H        0.92379883      -0.02084236      -0.29976559
H        1.83352010       0.58757055       1.18125109
9
Properties=species:S:1:pos:R:3 energy=-724.5098426733745 pbc="F F F"
C        1.09491139       0.73507213       0.44817849
C        0.52806947      -2.38259495      -0.39941562
O        0.24495233      -1.94742086       0.63997369
C        0.75303868      -2.87652598      -1.59599564
H        1.59884885      -2.80809795      -2.26044358
H       -0.02218598      -3.54302377      -1.94532254
H        0.43240438       1.56611146       0.44607666
H        0.92573497      -0.03081152      -0.26150497
H        1.81494492       0.61824043       1.21219650
9
Properties=species:S:1:pos:R:3 energy=-724.5166157459197 pbc="F F F"
C        1.09287630       0.74919963       0.46026487
C        0.53665455      -2.39241495      -0.40729051
O        0.26599009      -1.95327108       0.63198945
C        0.74699460      -2.89359821      -1.60468676
H        1.59439475      -2.83514739      -2.26794101
H       -0.03693083      -3.54718279      -1.95878787
H        0.44843792       1.59353066       0.41013529
H        0.92741262      -0.03937942      -0.22269248
H        1.79488900       0.64921255       1.24275202
9
Properties=species:S:1:pos:R:3 energy=-724.5234333582429 pbc="F F F"
C        1.09083701       0.76362409       0.47260327
C        0.54547709      -2.40199348      -0.41559447
O        0.28722574      -1.95923420       0.62403272
C        0.74100945      -2.91021557      -1.61310177
H        1.58952272      -2.86258470      -2.27530183
H       -0.05144769      -3.55071445      -1.97193803
H        0.46568353       1.61800048       0.37363274
H        0.92886608      -0.04656318      -0.18346908
H        1.77354508       0.68063002       1.27287946
9
Properties=species:S:1:pos:R:3 energy=-724.5304149391069 pbc="F F F"
C        1.08876444       0.77835433       0.48517044
C        0.55443740      -2.41147179      -0.42430966
O        0.30870842      -1.96528261       0.61598358
C        0.73506665      -2.92653516      -1.62134954
H        1.58430770      -2.89046923      -2.28260426
H       -0.06580213      -3.55376612      -1.98481843
H        0.48397008       1.63984181       0.33710451
H        0.93013493      -0.05238394      -0.14399005
H        1.75113151       0.71266171       1.30255639
9
Properties=species:S:1:pos:R:3 energy=-724.537591089336 pbc="F F F"
C        1.08662949       0.79339917       0.49794311
C        0.56343581      -2.42099114      -0.43341822
O        0.33048729      -1.97138869       0.60772214
C        0.72914963      -2.94271408      -1.62953893
H        1.57882465      -2.91886034      -2.28992652
H       -0.08005977      -3.55648516      -1.99747447
H        0.50312649       1.65937559       0.30108611
H        0.93125872      -0.05686282      -0.10441064
H        1.72786668       0.74547647       1.33176041
9
Properties=species:S:1:pos:R:3 energy=-724.5449826064337 pbc="F F F"
C        1.08440308       0.80876741       0.51089804
C        0.57237266      -2.43069278      -0.44290230
O        0.35261147      -1.97752482       0.59912846
C        0.72324183      -2.95890944      -1.63777883
H        1.57314852      -2.94781738      -2.29734685
H       -0.09428617      -3.55901895      -2.00995154
H        0.52298162       1.67692272       0.26611304
H        0.93227704      -0.06002093      -0.06488612
H        1.70396895       0.77924317       1.36046910
9
Properties=species:S:1:pos:R:3 energy=-724.5526251214936 pbc="F F F"
C        1.08205611       0.82446787       0.52401198
C        0.58114827      -2.44071795      -0.45274407
O        0.37513012      -1.98366339       0.59008266
C        0.71732669      -2.97527832      -1.64617811
H        1.56735425      -2.97739971      -2.30494346
H       -0.10854695      -3.56151485      -2.02229506
H        0.54336439       1.69280412       0.23272079
H        0.93322943      -0.06187941      -0.02557177
H        1.67965670       0.81413064       1.38866003
9
Properties=species:S:1:pos:R:3 energy=-724.5605579277769 pbc="F F F"
C        1.07956272       0.84050971       0.53726254
C        0.58967061      -2.45119998      -0.46292606
O        0.39808784      -1.98978191       0.58047038
C        0.71138793      -2.99196887      -1.65483854
H        1.56151191      -3.00766123      -2.31278780
H       -0.12290309      -3.56411108      -2.03454797
H        0.56410865       1.70732999       0.20141589
H        0.93415579      -0.06245771       0.01338587
H        1.65513663       0.85029008       1.41630869
9
Properties=species:S:1:pos:R:3 energy=-724.5687919445902 pbc="F F F"
C        1.07693449       0.85690620       0.55063758
C        0.59793659      -2.46217988      -0.47343552
O        0.42147652      -1.99591740       0.57024216
C        0.70541286      -3.00902483      -1.66377936
H        1.55563474      -3.03859256      -2.32087262
H       -0.13736201      -3.56683953      -2.04672489
H        0.58510627       1.72068601       0.17236780
H        0.93509965      -0.06175595       0.05194177
H        1.63047990       0.88766695       1.44336608
9
Properties=species:S:1:pos:R:3 energy=-724.5772750810562 pbc="F F F"
C        1.07420714       0.87367327       0.56413153
C        0.60600044      -2.47363919      -0.48426269
O        0.44525402      -2.00214532       0.55939037
C        0.69939106      -3.02642264      -1.67296656
H        1.54969932      -3.07014345      -2.32913984
H       -0.15189658      -3.56966347      -2.05882212
H        0.60628649       1.73297752       0.14552859
H        0.93610691      -0.05976178       0.09011635
H        1.60567021       0.92607405       1.46976738
9
Properties=species:S:1:pos:R:3 energy=-724.585906436617 pbc="F F F"
C        1.07141679       0.89082688       0.57773894
C        0.61391738      -2.48555841      -0.49539789
O        0.46937765      -2.00854173       0.54790807
C        0.69331217      -3.04413759      -1.68236527
H        1.54368162      -3.10226299      -2.33753056
H       -0.16647910      -3.57254501      -2.07083565
H        0.62757919       1.74430851       0.12084667
H        0.93722350      -0.05646264       0.12793114
H        1.58068979       0.96532198       1.49544756
9
Properties=species:S:1:pos:R:3 energy=-724.5945606054139 pbc="F F F"
C        1.06859959       0.90838300       0.59145435
C        0.62174263      -2.49791806      -0.50683141
O        0.49380472      -2.01518274       0.53578834
C        0.68716581      -3.06214500      -1.69194057
H        1.53755763      -3.13490025      -2.34598588
H       -0.18108188      -3.57544628      -2.08276150
H        0.64891425       1.75478299       0.09827047
H        0.93849536      -0.05184597       0.16540766
H        1.55552089       1.00522130       1.52034155
9
Properties=species:S:1:pos:R:3 energy=-724.6031037822091 pbc="F F F"
C        1.06579167       0.92635760       0.60527231
C        0.62953138      -2.51069866      -0.51855356
O        0.51849252      -2.02214441       0.52302423
C        0.68094162      -3.08042016      -1.70165759
H        1.53130330      -3.16800432      -2.35444688
H       -0.19567721      -3.57832942      -2.09459565
H        0.67022153       1.76450495       0.07774840
H        0.93996844      -0.04589920       0.20256744
H        1.53014574       1.04558261       1.54438428
9
Properties=species:S:1:pos:R:3 energy=-724.611401758077 pbc="F F F"
C        1.06302913       0.94476662       0.61918738
C        0.63733884      -2.52388073      -0.53055466
O        0.54339837      -2.02950281       0.50960885
C        0.67462923      -3.09893839      -1.71148144
H        1.52489464      -3.20152429      -2.36285466
H       -0.21023739      -3.58115655      -2.10633409
H        0.69143093       1.77357840       0.05922890
H        0.94168864      -0.03860980       0.23943199
H        1.50454660       1.08621653       1.56751074
9
Properties=species:S:1:pos:R:3 energy=-724.6193464435864 pbc="F F F"
C        1.06033865       0.96361379       0.63319958
C        0.64520350      -2.53745195      -0.54283974
O        0.56848544      -2.03731279       0.49555091
C        0.66822145      -3.11768407      -1.72139673
H        1.51832563      -3.23541115      -2.37115770
H       -0.22474751      -3.58389600      -2.11796178
H        0.71247840       1.78210797       0.04265629
H        0.94368837      -0.02999225       0.27600513
H        1.47872508       1.12697546       1.58968704
9
Properties=species:S:1:pos:R:3 energy=-724.6269062749913 pbc="F F F"
C        1.05771963       0.98286759       0.64732471
C        0.65311581      -2.55142063      -0.55545619
O        0.59373374      -2.04556824       0.48090417
C        0.66172025      -3.13666761      -1.73144407
H        1.51164205      -3.26962149      -2.37932568
H       -0.23922935      -3.58653395      -2.12943188
H        0.73331738       1.79020014       0.02796318
H        0.94596106      -0.02013880       0.31223982
H        1.45273842       1.16783200       1.61096893
9
Properties=species:S:1:pos:R:3 energy=-724.6340688418451 pbc="F F F"
C        1.05516662       1.00249021       0.66158139
C        0.66105763      -2.56579873      -0.56845896
O        0.61912632      -2.05425210       0.46573044
C        0.65512924      -3.15590410      -1.74167409
H        1.50489895      -3.30411288      -2.38733206
H       -0.25371125      -3.58905976      -2.14069187
H        0.75390444       1.79796169       0.01508005
H        0.94849322      -0.00915556       0.34807995
H        1.42665383       1.20878021       1.63142816
9
Properties=species:S:1:pos:R:3 energy=-724.6408179604878 pbc="F F F"
C        1.05267419       1.02244387       0.67598822
C        0.66901083      -2.58059822      -0.58190300
O        0.64464622      -2.06334736       0.45009152
C        0.64845202      -3.17540861      -1.75213742
H        1.49815134      -3.33884286      -2.39515033
H       -0.26822156      -3.59146278      -2.15168926
H        0.77419614       1.80549944       0.00393741
H        0.95127134       0.00285134       0.38346938
H        1.40053848       1.24981419       1.65113648
9
Properties=species:S:1:pos:R:3 energy=-724.6471038221002 pbc="F F F"
C        1.05023688       1.04269074       0.69056382
C        0.67695728      -2.59583107      -0.59584327
O        0.67027646      -2.07283698       0.43404921
C        0.64169219      -3.19519624      -1.76288467
H        1.49145427      -3.37376902      -2.40275394
H       -0.28278863      -3.59373238      -2.16237153
H        0.79414907       1.81292019      -0.00553425
H        0.95428191       0.01577577       0.41835199
H        1.37445958       1.29092798       1.67016565
9
Properties=species:S:1:pos:R:3 energy=-724.6527925598933 pbc="F F F"
C        1.04784923       1.06319305       0.70532679
C        0.68487884      -2.61150926      -0.61033473
O        0.69600009      -2.08270393       0.41766530
C        0.63485336      -3.21528205      -1.77396648
H        1.48486277      -3.40884890      -2.41011636
H       -0.29744081      -3.59585792      -2.17268617
H        0.81371977       1.82033072      -0.01340444
H        0.95751142       0.02951162       0.45267166
H        1.34848433       1.33211567       1.68858743
9
Properties=species:S:1:pos:R:3 energy=-724.6575963405139 pbc="F F F"
C        1.04550581       1.08391297       0.72029576
C        0.69275738      -2.62764475      -0.62543231
O        0.72180014      -2.09293119       0.40100160
C        0.62793914      -3.23568113      -1.78543348
H        1.47843186      -3.44404008      -2.41721108
H       -0.31220644      -3.59782876      -2.18258068
H        0.83286483       1.82783785      -0.01974264
H        0.96094637       0.04395276       0.48637226
H        1.32267990       1.37337133       1.70647357
9
Properties=species:S:1:pos:R:3 energy=-724.6609865740611 pbc="F F F"
C        1.04320116       1.10481271       0.73548933
C        0.70057477      -2.64424952      -0.64119098
O        0.74765965      -2.10350171       0.38411992
C        0.62095313      -3.25640857      -1.79733628
H        1.47221660      -3.47930012      -2.42401155
H       -0.32711386      -3.59963425      -2.19200254
H        0.85154080       1.83554837      -0.02461838
H        0.96457326       0.05899306       0.51939766
H        1.29711351       1.41468903       1.72389581
9
Properties=species:S:1:pos:R:3 energy=-724.6620943123161 pbc="F F F"
C        1.04092984       1.12585447       0.75092611
C        0.70831286      -2.66133555      -0.65766568
O        0.77356165      -2.11439846       0.36708205
C        0.61389893      -3.27747944      -1.80972552
H        1.46627200      -3.51458658      -2.43049124
H       -0.34219143      -3.60126376      -2.20089925
H        0.86970426       1.84356908      -0.02810115
H        0.96837857       0.07452640       0.55169175
H        1.27185233       1.45606284       1.74092593
9
Properties=species:S:1:pos:R:3 energy=-724.6596034511625 pbc="F F F"
C        1.03868639       1.14700044       0.76662472
C        0.71595353      -2.67891479      -0.67491137
O        0.79948918      -2.12560443       0.34994979
C        0.60678015      -3.29890882      -1.82265181
H        1.46065310      -3.54985703      -2.43662363
H       -0.35746749      -3.60270664      -2.20921830
H        0.88731177       1.85200679      -0.03026045
H        0.97234880       0.09044666       0.58319840
H        1.24696357       1.49748683       1.75763566
9
Properties=species:S:1:pos:R:3 energy=-724.6516436374063 pbc="F F F"
C        1.03646537       1.16821282       0.78260377
C        0.72347864      -2.69699923      -0.69298301
O        0.82542528      -2.13710257       0.33278494
C        0.59960040      -3.32071180      -1.83616579
H        1.45541494      -3.58506903      -2.44238219
H       -0.37297039      -3.60395227      -2.21690717
H        0.90431989       1.86096828      -0.03116579
H        0.97647044       0.10664771       0.61386147
H        1.22251442       1.53895508       1.77409677
9
Properties=species:S:1:pos:R:3 energy=-724.6356906943319 pbc="F F F"
C        1.03426133       1.18945381       0.79888186
C        0.73087005      -2.71560084      -0.71193553
O        0.85135299      -2.14887585       0.31564931
C        0.59236327      -3.34290345      -1.85031809
H        1.45061255      -3.62018015      -2.44774039
H       -0.38872847      -3.60498998      -2.22391337
H        0.92068521       1.87056037      -0.03088667
H        0.98072999       0.12302343       0.64362486
H        1.19857207       1.58046166       1.79038101
9
Properties=species:S:1:pos:R:3 energy=-724.6084827891314 pbc="F F F"
C        1.03206881       1.21068562       0.81547762
C        0.73810964      -2.73473158      -0.73182391
O        0.87725533      -2.16090724       0.29860470
C        0.58507238      -3.36549886      -1.86515932
H        1.44630096      -3.65514794      -2.45267169
H       -0.40477008      -3.60580916      -2.23018437
H        0.93636428       1.88088984      -0.02949259
H        0.98511395       0.13946769       0.67243243
H        1.17520372       1.62200064       1.80656013
