9
Properties=species:S:1:pos:R:3 energy=-723.2120579117903 pbc="F F F"
C        1.02773364       0.13538898       0.20105578
C        0.53351307      -1.77723428      -0.21557348
O       -0.12641134      -1.99617796       0.73900433
C        0.84253966      -2.51408995      -1.37712525
H        1.63120917      -2.39668720      -2.10557820
H        0.23219219      -3.40003951      -1.64576077
H        0.37243392       0.77914031       0.82984058
H        0.86042599       0.33200244      -0.81696301
H        1.99708270       0.16864616       0.67484301
