24
Properties=species:S:1:pos:R:3 energy=-2748.560410178197 pbc="F F F"
O       -2.17738608       3.01549653       3.82385372
C       -1.91108001       2.18823710       3.04421464
C       -2.33497578       1.26614856       2.00761566
C       -3.37069280       1.80394801       1.00922848
C       -4.41242987       2.73941149       1.62676892
C       -5.19437430       3.62973836       0.66404211
H       -4.69432959       4.62478610       0.56971799
C       -5.41826704       3.05069666      -0.74236371
O       -4.65406736       3.33458445      -1.63486855
C       -6.61526329       2.18949321      -0.93494424
H       -6.58194250       5.26464402       2.47920947
H       -1.42694164       0.94885836       1.43605272
H       -2.70047117       0.34596381       2.49204775
H       -2.83452650       2.34005640       0.19941083
H       -3.86723515       0.94418765       0.52089148
H       -5.13613637       2.14148000       2.23657890
H       -3.90276006       3.42323603       2.36318620
H       -7.21454570       2.09517629      -0.02608148
H       -7.28746985       2.57883795      -1.71991916
H       -6.31777018       1.18572996      -1.26584765
O       -6.50101851       3.81042329       1.28616555
O       -6.65370667       5.21311094       1.47810208
O        0.77145412       3.32421383       2.18282204
O        0.31938630       2.35018200       1.90642325
