24
Properties=species:S:1:pos:R:3 energy=-19714.635813999586 pbc="F F F"
O       -2.48711800       1.96905600       4.14409700
C       -1.87195200       1.93742000       3.12597500
C       -2.14936500       1.42628000       1.76008600
C       -3.54387300       1.82796100       1.27065900
C       -3.62254600       3.32083200       0.92887200
C       -5.02945500       3.74358500       0.49637500
H       -5.10153200       4.84753900       0.35106000
C       -5.47696000       3.04734200      -0.80619000
O       -4.77303100       3.11049300      -1.78764800
C       -6.79072200       2.34405500      -0.76732300
H       -6.95118100       4.58140000       2.52509900
H       -1.36108300       1.78007800       1.04828400
H       -2.04916500       0.31621700       1.76357700
H       -3.80017800       1.22172600       0.37683400
H       -4.30676500       1.57710500       2.04008000
H       -3.31350200       3.93053100       1.80211300
H       -2.91346800       3.56709800       0.10717900
H       -7.58677900       2.99932900      -0.37241100
H       -7.09563100       1.98710200      -1.76021600
H       -6.76224800       1.48109600      -0.08473900
O       -5.88287700       3.35605500       1.60596600
O       -6.99095300       4.25283500       1.57666700
O        0.21268000       2.61905300       2.33868100
O       -0.46884600       2.56445300       3.31923000
