5
Properties=species:S:1:pos:R:3 energy=-558.2878097812971 pbc="F F F"
C        0.96255870       0.04373714       0.15958742
C        0.30555029       1.12396018       0.79953725
O        0.03151427       1.70208000      -0.21863983
H        0.39229009      -0.82149453      -0.13854447
H        2.01886765       0.11319622      -0.04560037
