9
Properties=species:S:1:pos:R:3 energy=-723.2686544489829 pbc="F F F"
C       -7.15213641       0.46914038       1.27118289
C       -6.02508238       1.22043622       1.56038335
H       -8.16914276       0.72831285       1.49057135
H       -6.98190143      -0.60303775       1.08548963
H       -6.76509516       1.50969773       0.41931477
C       -4.93607818       1.36755538       2.31216423
H       -3.98889974       1.84856325       2.19082828
O       -4.94806618       0.82550026       3.58178410
H       -5.80965176       0.36019468       3.75358440
