22
Properties=species:S:1:pos:R:3 energy=-15622.865917766218 pbc="F F F"
O        2.16965700       0.15493800       1.33211500
C        2.85490100       0.01307500       0.39674800
C        3.16998700      -0.89909600      -0.70017100
C        2.54313400      -2.29222800      -0.54841300
C        1.03274100      -2.28737500      -0.81845700
C        0.70218100      -2.12362600      -2.30276000
H        1.40795300      -2.66575600      -2.97169500
C       -0.73991600      -2.49641300      -2.68606800
O       -1.40069700      -1.74001400      -3.36213700
C       -1.24956700      -3.82866200      -2.23432800
O        0.86733300      -0.68950600      -2.51051100
O        0.88141300      -0.44780500      -3.89944000
H        2.81909300      -0.42415600      -1.65927000
H        4.27357100      -0.97414300      -0.81090400
H        3.05418500      -2.99802300      -1.23265100
H        2.72903200      -2.67693200       0.47551400
H        0.58448000      -3.22180100      -0.42805000
H        0.55456000      -1.46070900      -0.24405900
H       -0.48248100      -4.61173500      -2.23349600
H       -1.66634000      -3.76778200      -1.21713000
H       -2.07516600      -4.17327700      -2.87945100
H       -0.10777000      -0.27400100      -4.06922900
