9
Properties=species:S:1:pos:R:3 energy=-724.6500662111376 pbc="F F F"
C       -6.40215500       1.91222100      -1.30283600
C       -6.60457700       1.16323500      -0.00909900
H       -6.97357300       1.45052800      -2.10913400
H       -5.33739900       1.91505500      -1.56151300
H       -6.71944500       2.95338900      -1.17661800
C       -7.36951100       0.09958800       0.11250900
H       -7.70438100      -0.61679900       0.84249500
O       -5.85657600       1.77789000       1.01991900
H       -5.99572400       1.27794100       1.86889400
9
Properties=species:S:1:pos:R:3 energy=-724.7331448692264 pbc="F F F"
C       -6.40287028       1.91230590      -1.30117015
C       -6.60460558       1.16548345      -0.01301199
H       -6.95952874       1.44183168      -2.11748343
H       -5.33264083       1.93265432      -1.55021910
H       -6.73808032       2.95151754      -1.18334976
C       -7.36759345       0.10650656       0.14345787
H       -7.72222592      -0.61808113       0.83178420
O       -5.84705383       1.76575010       1.01024132
H       -5.98874205       1.27507958       1.86436804
9
Properties=species:S:1:pos:R:3 energy=-724.7909634888732 pbc="F F F"
C       -6.40368650       1.91257745      -1.29983475
C       -6.60498901       1.16712518      -0.01654953
H       -6.94405191       1.43287952      -2.12556646
H       -5.32849065       1.95124672      -1.53796603
H       -6.75740746       2.94886888      -1.19068078
C       -7.36642351       0.11358954       0.17254567
H       -7.73978570      -0.61887268       0.82215650
O       -5.83692008       1.75345461       1.00064348
H       -5.98158618       1.27217879       1.85986892
9
Properties=species:S:1:pos:R:3 energy=-724.8295683797093 pbc="F F F"
C       -6.40458542       1.91301951      -1.29879827
C       -6.60568682       1.16821834      -0.01973967
H       -6.92721001       1.42372845      -2.13333619
H       -5.32498524       1.97075035      -1.52481928
H       -6.77733502       2.94543468      -1.19857782
C       -7.36599889       0.12078454       0.19972836
H       -7.75700614      -0.61918374       0.81361193
O       -5.82624718       1.74104014       0.99114689
H       -5.97428628       1.26925572       1.85540106
9
Properties=species:S:1:pos:R:3 energy=-724.8538999712098 pbc="F F F"
C       -6.40554879       1.91361592      -1.29802917
C       -6.60665855       1.16882110      -0.02261047
H       -6.90907050       1.41443541      -2.14074575
H       -5.32216137       1.99108338      -1.51084432
H       -6.79777162       2.94120660      -1.20700760
C       -7.36631732       0.12803916       0.22496193
H       -7.77383308      -0.61902437       0.80615052
O       -5.81510758       1.72854335       0.98177297
H       -5.96687219       1.26632745       1.85096889
9
Properties=species:S:1:pos:R:3 energy=-724.8678887267496 pbc="F F F"
C       -6.40655838       1.91435052      -1.29749592
C       -6.60786376       1.16899161      -0.02518997
H       -6.88970086       1.40505730      -2.14774824
H       -5.32005581       2.01216397      -1.49610662
H       -6.81862585       2.93617632      -1.21593686
C       -7.36737654       0.13530101       0.24820236
H       -7.79021233      -0.61840468       0.79977230
O       -5.80357369       1.71600087       0.97254313
H       -5.95937378       1.26341107       1.84657682
9
Properties=species:S:1:pos:R:3 energy=-724.8745937261258 pbc="F F F"
C       -6.40759594       1.91520715      -1.29716697
C       -6.60926199       1.16878802      -0.02750622
H       -6.86916858       1.39565105      -2.15429677
H       -5.31870534       2.03391030      -1.48067166
H       -6.83980631       2.93033551      -1.22533236
C       -7.36917426       0.14251769       0.26940563
H       -7.80608972      -0.61733473       0.79447729
O       -5.79171795       1.70344934       0.96347879
H       -5.95182090       1.26052366       1.84222928
9
Properties=species:S:1:pos:R:3 energy=-724.8763572151787 pbc="F F F"
C       -6.40864324       1.91616967      -1.29701081
C       -6.61081277       1.16826849      -0.02958729
H       -6.84754114       1.38627359      -2.16034447
H       -5.31814673       2.05624052      -1.46460491
H       -6.86122161       2.92367584      -1.23516083
C       -7.37170822       0.14963680       0.28852772
H       -7.82141107      -0.61582462       0.79026554
O       -5.77961280       1.69092538       0.95460135
H       -5.94424342       1.25768232       1.83793070
9
Properties=species:S:1:pos:R:3 energy=-724.874952870361 pbc="F F F"
C       -6.40968203       1.91722191      -1.29699588
C       -6.61247566       1.16749117      -0.03146123
H       -6.82488601       1.37698184      -2.16584443
H       -5.31841676       2.07907281      -1.44797184
H       -6.88278035       2.91618897      -1.24538901
C       -7.37497613       0.15660595       0.30552461
H       -7.83612219      -0.61388442       0.78713706
O       -5.76733066       1.67846564       0.94593223
H       -5.93667120       1.25490413       1.83368550
9
Properties=species:S:1:pos:R:3 energy=-724.8717136081369 pbc="F F F"
C       -6.41069408       1.91834773      -1.29709066
C       -6.61421021       1.16651421      -0.03315608
H       -6.80127067       1.36783273      -2.17074979
H       -5.31955220       2.10232532      -1.43083794
H       -6.90439114       2.90786657      -1.25598364
C       -7.37897574       0.16337274       0.32035228
H       -7.85016891      -0.61152422       0.78509188
O       -5.75494396       1.66610676       0.93749285
H       -5.92913410       1.25220616       1.82949810
9
Properties=species:S:1:pos:R:3 energy=-724.8676318944309 pbc="F F F"
C       -6.41166114       1.91953096      -1.29726361
C       -6.61597594       1.16539578      -0.03469990
H       -6.77676260       1.35888317      -2.17501364
H       -5.32158982       2.12591622      -1.41326868
H       -6.92596256       2.89870031      -1.26691146
C       -7.38370476       0.16988478       0.33296672
H       -7.86349705      -0.60875410       0.78413004
O       -5.74252515       1.65388536       0.92930461
H       -5.92166198       1.24960552       1.82537292
9
Properties=species:S:1:pos:R:3 energy=-724.8634311894596 pbc="F F F"
C       -6.41256496       1.92075546      -1.29748319
C       -6.61773242       1.16419402      -0.03612075
H       -6.75142929       1.35019010      -2.17858910
H       -5.32456639       2.14976368      -1.39532952
H       -6.94740324       2.88868186      -1.27813922
C       -7.38916091       0.17608966       0.34332389
H       -7.87605244      -0.60558415       0.78425156
O       -5.73014664       1.64183809       0.92138893
H       -5.91428470       1.24711927       1.82131440
9
Properties=species:S:1:pos:R:3 energy=-724.8596106413426 pbc="F F F"
C       -6.41338732       1.92200506      -1.29771787
C       -6.61943917       1.16296710      -0.03744667
H       -6.72533821       1.34181043      -2.18142929
H       -5.32851870       2.17378586      -1.37708595
H       -6.96862177       2.87780290      -1.28963365
C       -7.39534194       0.18193500       0.35137979
H       -7.88778089      -0.60202445       0.78545647
O       -5.71788087       1.63000159       0.91376723
H       -5.90703212       1.24476452       1.81732695
9
Properties=species:S:1:pos:R:3 energy=-724.8564669868604 pbc="F F F"
C       -6.41410997       1.92326361      -1.29793612
C       -6.62105576       1.16177316      -0.03870572
H       -6.69855684       1.33380109      -2.18348731
H       -5.33348351       2.19790093      -1.35860344
H       -6.98952676       2.86605507      -1.30136150
C       -7.40224555       0.18736839       0.35709039
H       -7.89862823      -0.59808507       0.78774481
O       -5.70580028       1.61841248       0.90646091
H       -5.89993410       1.24255835       1.81341499
9
Properties=species:S:1:pos:R:3 energy=-724.8540739806112 pbc="F F F"
C       -6.41472102       1.92451588      -1.29809781
C       -6.62256858       1.16065712      -0.03993483
H       -6.67115453       1.32622064      -2.18472773
H       -5.33948549       2.22203448      -1.33994930
H       -7.01002599       2.85344743      -1.31330357
C       -7.40985232       0.19234280       0.36046282
H       -7.90854817      -0.59377572       0.79109789
O       -5.69396923       1.60708527       0.89948788
H       -5.89301567       1.24052012       1.80958165
9
Properties=species:S:1:pos:R:3 energy=-724.8521933786836 pbc="F F F"
C       -6.41524413       1.92575180      -1.29811472
C       -6.62411440       1.15958974      -0.04122055
H       -6.64321109       1.31913676      -2.18517914
H       -5.34648155       2.24615368      -1.32120109
H       -7.03002271       2.84008612      -1.32551941
C       -7.41804667       0.19684119       0.36179039
H       -7.91753867      -0.58910389       0.79539238
O       -5.68240694       1.59591061       0.89284637
H       -5.88627482       1.23868199       1.80582276
9
Properties=species:S:1:pos:R:3 energy=-724.850451252455 pbc="F F F"
C       -6.41571532       1.92696312      -1.29788192
C       -6.62588226       1.15851604      -0.04266670
H       -6.61480996       1.31262034      -2.18489237
H       -5.35440504       2.27024015      -1.30243995
H       -7.04941862       2.82611108      -1.33809592
C       -7.42667967       0.20085694       0.36146592
H       -7.92561303      -0.58407632       0.80046857
O       -5.67111697       1.58473608       0.88652777
H       -5.87970014       1.23708058       1.80213160
9
Properties=species:S:1:pos:R:3 energy=-724.8484482227319 pbc="F F F"
C       -6.41617060       1.92814155      -1.29729447
C       -6.62806124       1.15738097      -0.04437712
H       -6.58603460       1.30674223      -2.18391829
H       -5.36318927       2.29427552      -1.28374701
H       -7.06811537       2.81166229      -1.35112003
C       -7.43560230       0.20438346       0.35988230
H       -7.93278460      -0.57869974       0.80616670
O       -5.66010283       1.57340923       0.88052346
H       -5.87328020       1.23575249       1.79850147
9
Properties=species:S:1:pos:R:3 energy=-724.8457675536323 pbc="F F F"
C       -6.41664601       1.92927885      -1.29624742
C       -6.63084042       1.15612953      -0.04645564
H       -6.55696845       1.30157332      -2.18230779
H       -5.37276758       2.31824143      -1.26520341
H       -7.08601464       2.79687970      -1.36467868
C       -7.44466558       0.20741414       0.35743245
H       -7.93906669      -0.57298090       0.81232701
O       -5.64936805       1.56177759       0.87482484
H       -5.86700358       1.23473433       1.79492565
9
Properties=species:S:1:pos:R:3 energy=-724.8419315986757 pbc="F F F"
C       -6.41717757       1.93036675      -1.29463583
C       -6.63440888       1.15470669      -0.04900610
H       -6.52769497       1.29718447      -2.18011173
H       -5.38307329       2.34211951      -1.24689029
H       -7.10301811       2.78190329      -1.37885880
C       -7.45372051       0.20994238       0.35450928
H       -7.94447264      -0.56692653       0.81878977
O       -5.63891616       1.54968873       0.86942329
H       -5.86085887       1.23406271       1.79139742
9
Properties=species:S:1:pos:R:3 energy=-724.8363104335297 pbc="F F F"
C       -6.41780062       1.93139719      -1.29235659
C       -6.63895229       1.15305785      -0.05213003
H       -6.49829690       1.29364586      -2.17738081
H       -5.39404019       2.36589158      -1.22888811
H       -7.11902889       2.76687150      -1.39374584
C       -7.46261898       0.21196257       0.35150362
H       -7.94901716      -0.56054432       0.82539588
O       -5.62875116       1.53699216       0.86430962
H       -5.85483481       1.23377361       1.78790925
9
Properties=species:S:1:pos:R:3 energy=-724.8282081827635 pbc="F F F"
C       -6.41850922       1.93237531      -1.28941783
C       -6.64445148       1.15115370      -0.05579100
H       -6.46881485       1.29098524      -2.17415501
H       -5.40562944       2.38955034      -1.21123738
H       -7.13403679       2.75183133      -1.40933586
C       -7.47126542       0.21352874       0.34868272
H       -7.95279721      -0.55389905       0.83202697
O       -5.61890547       1.52365699       0.85944073
H       -5.84893111       1.23386541       1.78440366
9
Properties=species:S:1:pos:R:3 energy=-724.8173204403683 pbc="F F F"
C       -6.41923346       1.93332662      -1.28599999
C       -6.65056974       1.14900415      -0.05973876
H       -6.43922414       1.28916468      -2.17045777
H       -5.41784468       2.41310535      -1.19391664
H       -7.14816599       2.73668806      -1.42548639
C       -7.47964572       0.21478737       0.34612217
H       -7.95603730      -0.54714400       0.83862776
O       -5.60945562       1.50983760       0.85472087
H       -5.84316436       1.23427817       1.78074576
9
Properties=species:S:1:pos:R:3 energy=-724.8039093908739 pbc="F F F"
C       -6.41989789       1.93427841      -1.28229836
C       -6.65694306       1.14662250      -0.06370465
H       -6.40949447       1.28814057      -2.16631110
H       -5.43069316       2.43656762      -1.17689911
H       -7.16155219       2.72133479      -1.44204303
C       -7.48775278       0.21589290       0.34388109
H       -7.95897290      -0.54044006       0.84514839
O       -5.60048190       1.49570433       0.85004977
H       -5.83755265       1.23494694       1.77679401
9
Properties=species:S:1:pos:R:3 energy=-724.7888725898475 pbc="F F F"
C       -6.42042711       1.93525797      -1.27850825
C       -6.66320744       1.14402203      -0.06742000
H       -6.37959553       1.28786931      -2.16173699
H       -5.44418217       2.45994817      -1.16015802
H       -7.17433114       2.70566459      -1.45885137
C       -7.49557950       0.21699975       0.34201862
H       -7.96183946      -0.53394813       0.85153898
O       -5.59206462       1.48142751       0.84532717
H       -5.83211403       1.23580680       1.77240687
9
Properties=species:S:1:pos:R:3 energy=-724.7736715594357 pbc="F F F"
C       -6.42074568       1.93629257      -1.27482494
C       -6.66899886       1.14121602      -0.07061616
H       -6.34949701       1.28830730      -2.15675745
H       -5.45831898       2.48325800      -1.14366658
H       -7.18663856       2.68957056      -1.47575704
C       -7.50311877       0.21826236       0.34059387
H       -7.96487247      -0.52782908       0.85774969
O       -5.58428408       1.46717749       0.84045281
H       -5.82686660       1.23679278       1.76744281
9
Properties=species:S:1:pos:R:3 energy=-724.7601287617028 pbc="F F F"
C       -6.42077817       1.93740950      -1.27144371
C       -6.67395331       1.13821777      -0.07302447
H       -6.31916861       1.28941095      -2.15139447
H       -5.47311086       2.50650814      -1.12739802
H       -7.19861017       2.67294578      -1.49260562
C       -7.51036350       0.21983516       0.33966596
H       -7.96830739      -0.52224382       0.86373064
O       -5.57722058       1.45312459       0.83532642
H       -5.82182840       1.23783995       1.76176028
9
Properties=species:S:1:pos:R:3 energy=-724.7499972383964 pbc="F F F"
C       -6.42046874       1.93863095      -1.26853596
C       -6.67773979       1.13504301      -0.07440270
H       -6.28859088       1.29114337      -2.14566595
H       -5.48856715       2.52969837      -1.11133140
H       -7.21035770       2.65570345      -1.50926208
C       -7.51730960       0.22185335       0.33928278
H       -7.97234993      -0.51732635       0.86943861
O       -5.57094917       1.43941125       0.82984913
H       -5.81700805       1.23889059       1.75524456
9
Properties=species:S:1:pos:R:3 energy=-724.7437986623257 pbc="F F F"
C       -6.41991699       1.93993873      -1.26608326
C       -6.68028947       1.13172708      -0.07471849
H       -6.25783048       1.29352119      -2.13955698
H       -5.50471343       2.55273921      -1.09549224
H       -7.22180227       2.63791654      -1.52574498
C       -7.52397699       0.22429949       0.33940281
H       -7.97696940      -0.51299709       0.87488304
O       -5.56550309       1.42595841       0.82393311
H       -5.81233888       1.23994445       1.74799398
9
Properties=species:S:1:pos:R:3 energy=-724.7411700347557 pbc="F F F"
C       -6.41929667       1.94129538      -1.26397665
C       -6.68165854       1.12831461      -0.07403956
H       -6.22699518       1.29658651      -2.13303705
H       -5.52158309       2.57549866      -1.07992820
H       -7.23277409       2.61973420      -1.54214618
C       -7.53039700       0.22708330       0.33994191
H       -7.98202240      -0.50907464       0.88009850
O       -5.56089566       1.41258133       0.81749580
H       -5.80771836       1.24102867       1.74020843
9
Properties=species:S:1:pos:R:3 energy=-724.7414039234282 pbc="F F F"
C       -6.41878198       1.94266331      -1.26210663
C       -6.68190397       1.12485030      -0.07243425
H       -6.19619299       1.30038159      -2.12607555
H       -5.53920953       2.59784443      -1.06468709
H       -7.24310281       2.60130603      -1.55855797
C       -7.53660106       0.23011409       0.34081569
H       -7.98736484      -0.50537696       0.88511970
O       -5.55714009       1.39909465       0.81045466
H       -5.80304372       1.24217056       1.73208845
9
Properties=species:S:1:pos:R:3 energy=-724.7435155867967 pbc="F F F"
C       -6.41854711       1.94400494      -1.26036371
C       -6.68108272       1.12137888      -0.06997091
H       -6.16553191       1.30494870      -2.11864186
H       -5.55762617       2.61964424      -1.04981671
H       -7.25261809       2.58278165      -1.57507265
C       -7.54262059       0.23330114       0.34193977
H       -7.99285261      -0.50172201       0.88998135
O       -5.55424958       1.38531302       0.80272716
H       -5.79821221       1.24339744       1.72383455
9
Properties=species:S:1:pos:R:3 energy=-724.7462157472729 pbc="F F F"
C       -6.41876628       1.94528271      -1.25863836
C       -6.67925174       1.11794503      -0.06671787
H       -6.13511995       1.31033011      -2.11070539
H       -5.57686643       2.64076583      -1.03536486
H       -7.26114960       2.56431067      -1.59178251
C       -7.54848700       0.23655376       0.34322974
H       -7.99834162      -0.49792776       0.89471818
O       -5.55223731       1.37105105       0.79423078
H       -5.79312107       1.24473661       1.71564729
9
Properties=species:S:1:pos:R:3 energy=-724.7477845354492 pbc="F F F"
C       -6.41961310       1.94645923      -1.25682153
C       -6.67646876       1.11459344      -0.06274419
H       -6.10506502       1.31656787      -2.10223552
H       -5.59696356       2.66107715      -1.02137911
H       -7.26852745       2.54604253      -1.60877971
C       -7.55423154       0.23978140       0.34460150
H       -8.00368815      -0.49381267       0.89936495
O       -5.55111590       1.35612373       0.78488377
H       -5.78766754       1.24621532       1.70772686
9
Properties=species:S:1:pos:R:3 energy=-724.7457595930368 pbc="F F F"
C       -6.42116945       1.94753070      -1.25487760
C       -6.67291349       1.11136585      -0.05823536
H       -6.07545751       1.32366963      -2.09320544
H       -5.61792351       2.68048700      -1.00787013
H       -7.27465973       2.52809663      -1.62613618
C       -7.55985708       0.24291997       0.34601881
H       -8.00880798      -0.48927514       0.90396407
O       -5.55080158       1.34040362       0.77473441
H       -5.78175068       1.24784976       1.70022441
9
Properties=species:S:1:pos:R:3 energy=-724.7375572451939 pbc="F F F"
C       -6.42332476       1.94856370      -1.25292488
C       -6.66902155       1.10829775      -0.05362102
H       -6.04635113       1.33157090      -2.08359613
H       -5.63969501       2.69898969      -0.99477110
H       -7.27961794       2.51052941      -1.64388134
C       -7.56530702       0.24596089       0.34754576
H       -8.01374178      -0.48438123       0.90857405
O       -5.55100848       1.32388394       0.76410358
H       -5.77527333       1.24963296       1.69318809
9
Properties=species:S:1:pos:R:3 energy=-724.7220434531923 pbc="F F F"
C       -6.42594425       1.94963368      -1.25110110
C       -6.66526076       1.10542389      -0.04936156
H       -6.01779496       1.34019810      -2.07338961
H       -5.66221961       2.71659036      -0.98200549
H       -7.28349416       2.49338938      -1.66203925
C       -7.57051727       0.24890255       0.34925910
H       -8.01854592      -0.47921812       0.91325537
O       -5.55142529       1.30657314       0.75334647
H       -5.76813878       1.25155503       1.68665307
9
Properties=species:S:1:pos:R:3 energy=-724.7001743360523 pbc="F F F"
C       -6.42889311       1.95081609      -1.24954396
C       -6.66209895       1.10277898      -0.04591736
H       -5.98983810       1.34947765      -2.06256787
H       -5.68543882       2.73329411      -0.96949676
H       -7.28638047       2.47672507      -1.68063401
C       -7.57542373       0.25174336       0.35123556
H       -8.02327678      -0.47387299       0.91806856
O       -5.55174069       1.28847965       0.74281828
H       -5.76025035       1.25360607       1.68065456
9
Properties=species:S:1:pos:R:3 energy=-724.6751283746211 pbc="F F F"
C       -6.43203655       1.95218637      -1.24839117
C       -6.66000393       1.10039777      -0.04374881
H       -5.96252963       1.35933599      -2.05111291
H       -5.70929418       2.74910606      -0.95716837
H       -7.28836896       2.46058499      -1.69968968
C       -7.57996232       0.25448170       0.35355187
H       -8.02799071      -0.46843299       0.92307411
O       -5.55164338       1.26961192       0.73287423
H       -5.75151134       1.25577620       1.67522772
9
Properties=species:S:1:pos:R:3 energy=-724.651794345177 pbc="F F F"
C       -6.43523978       1.95381998      -1.24778046
C       -6.65944352       1.09831497      -0.04331629
H       -5.93591864       1.36969953      -2.03900672
H       -5.73372721       2.76403132      -0.94494377
H       -7.28955171       2.44501765      -1.71923034
C       -7.58406893       0.25711599       0.35628478
H       -8.03274410      -0.46298532       0.92833254
O       -5.55082204       1.24997838       0.72386950
H       -5.74182507       1.25805551       1.67040775
9
Properties=species:S:1:pos:R:3 energy=-724.6353657934011 pbc="F F F"
C       -6.43837582       1.95578533      -1.24783823
C       -6.66086506       1.09655943      -0.04505098
H       -5.91005412       1.38049197      -2.02623978
H       -5.75867207       2.77807631      -0.93275387
H       -7.29001970       2.43007085      -1.73927133
C       -7.58768593       0.25964463       0.35950086
H       -8.03758879      -0.45761472       0.93389782
O       -5.54896848       1.22959998       0.71614465
H       -5.73111102       1.26043422       1.66622786
9
Properties=species:S:1:pos:R:3 energy=-724.6284478886839 pbc="F F F"
C       -6.44140879       1.95806924      -1.24855962
C       -6.66447751       1.09509163      -0.04904455
H       -5.88498417       1.39160522      -2.01290100
H       -5.78397711       2.79126254      -0.92061627
H       -7.28985116       2.41578411      -1.75972645
C       -7.59083061       0.26206628       0.36314885
H       -8.04252399      -0.45237779       0.93974804
O       -5.54581084       1.20864318       0.70986981
H       -5.71947681       1.26290359       1.66269819
9
Properties=species:S:1:pos:R:3 energy=-724.6299846243925 pbc="F F F"
C       -6.44436153       1.96060581      -1.24985503
C       -6.67033610       1.09382790      -0.05516960
H       -5.86075627       1.40291074      -1.99914280
H       -5.80943530       2.80362130      -0.90860447
H       -7.28911608       2.40219156      -1.78044402
C       -7.59356866       0.26437973       0.36710142
H       -8.04751492      -0.44731294       0.94581231
O       -5.54110070       1.18736832       0.70510520
H       -5.70715143       1.26545559       1.65981400
9
Properties=species:S:1:pos:R:3 energy=-724.6356444683256 pbc="F F F"
C       -6.44725786       1.96332832      -1.25163348
C       -6.67849348       1.09268384      -0.06329511
H       -5.83741789       1.41427960      -1.98511868
H       -5.83483872       2.81518401      -0.89679293
H       -7.28788431       2.38932728      -1.80127123
C       -7.59596654       0.26658378       0.37122997
H       -8.05252628      -0.44245830       0.95201895
O       -5.53459004       1.16603730       0.70190919
H       -5.69436589       1.26808217       1.65757032
9
Properties=species:S:1:pos:R:3 energy=-724.638199365382 pbc="F F F"
C       -6.45012161       1.96617002      -1.25380395
C       -6.68900229       1.09157508      -0.07329004
H       -5.81501651       1.42558291      -1.97098211
H       -5.85997943       2.82598211      -0.88525609
H       -7.28622570       2.37722533      -1.82205530
C       -7.59809072       0.26867722       0.37540590
H       -8.05752271      -0.43785200       0.95829625
O       -5.52603083       1.14491201       0.70034015
H       -5.68135120       1.27077532       1.65596218
9
Properties=species:S:1:pos:R:3 energy=-724.6283828781336 pbc="F F F"
C       -6.45297661       1.96906415      -1.25627546
C       -6.70191518       1.09041723      -0.08502336
H       -5.79359961       1.43669175      -1.95688657
H       -5.88464949       2.83604704      -0.87406839
H       -7.28421011       2.36591976      -1.84264343
C       -7.60000769       0.27065887       0.37950061
H       -8.06246891      -0.43353216       0.96457253
O       -5.51517503       1.12425436       0.70045648
H       -5.66833837       1.27352701       1.65498459
9
Properties=species:S:1:pos:R:3 energy=-724.596129806414 pbc="F F F"
C       -6.45584667       1.97194399      -1.25895702
C       -6.71728475       1.08912590      -0.09836401
H       -5.77321466       1.44747724      -1.94298554
H       -5.90864101       2.84541022      -0.86330426
H       -7.28190738       2.35544463      -1.86288284
C       -7.60178390       0.27252751       0.38338554
H       -8.06732956      -0.42953690       0.97077608
O       -5.50177470       1.10432619       0.70231649
H       -5.65555838       1.27632921       1.65463257
9
Properties=species:S:1:pos:R:3 energy=-724.5322083860674 pbc="F F F"
C       -6.45874495       1.97475812      -1.26177576
C       -6.73509992       1.08764187      -0.11316723
H       -5.75391587       1.45783457      -1.92940632
H       -5.93177824       2.85408867      -0.85303233
H       -7.27937316       2.34582637      -1.88263425
C       -7.60348198       0.27428071       0.38695497
H       -8.07207763      -0.42589782       0.97684649
O       -5.48566318       1.08534364       0.70594006
H       -5.64320609       1.27917188       1.65489138
9
Properties=species:S:1:pos:R:3 energy=-724.430852735654 pbc="F F F"
C       -6.46165394       1.97749912      -1.26471087
C       -6.75516655       1.08597811      -0.12924878
H       -5.73577679       1.46772816      -1.91620099
H       -5.95397793       2.86205800      -0.84330449
H       -7.27662229       2.33706941      -1.90179716
C       -7.60515346       0.27591248       0.39016894
H       -8.07671001      -0.42262784       0.98275570
O       -5.46690762       1.06739127       0.71123639
H       -5.63137242       1.28203928       1.65571827
9
Properties=species:S:1:pos:R:3 energy=-724.2916864887003 pbc="F F F"
C       -6.46455066       1.98016747      -1.26775086
C       -6.77725774       1.08416055      -0.14641736
H       -5.71887442       1.47713481      -1.90340820
H       -5.97517337       2.86928642      -0.83416961
H       -7.27366231       2.32917430      -1.92027801
C       -7.60684792       0.27741621       0.39299924
H       -8.08122785      -0.41973651       0.98848143
O       -5.44561697       1.05053015       0.71809489
H       -5.62012977       1.28491461       1.65706548
9
Properties=species:S:1:pos:R:3 energy=-724.1204704919187 pbc="F F F"
C       -6.46741213       1.98276362      -1.27088422
C       -6.80114664       1.08221510      -0.16448169
H       -5.70328578       1.48603132      -1.89106658
H       -5.99529784       2.87574213      -0.82567659
H       -7.27050079       2.32214155      -1.93798323
C       -7.60861489       0.27878526       0.39541766
H       -8.08563229      -0.41723341       0.99400142
O       -5.42190016       1.03482134       0.72640499
H       -5.60955049       1.28778109       1.65888524
9
Properties=species:S:1:pos:R:3 energy=-723.9294043788695 pbc="F F F"
C       -6.47021536       1.98528804      -1.27409945
C       -6.82660634       1.08016766      -0.18325046
H       -5.68908785       1.49439449      -1.87921478
H       -6.01428464       2.88139335      -0.81787432
H       -7.26714525       2.31597170      -1.95481927
C       -7.61050395       0.28001302       0.39739600
H       -8.08992448      -0.41512811       0.99929339
O       -5.39586614       1.02032592       0.73605610
H       -5.59970698       1.29062193       1.66112979
9
Properties=species:S:1:pos:R:3 energy=-723.7362592024787 pbc="F F F"
C       -6.47293738       1.98774119      -1.27738505
C       -6.85340999       1.07804414      -0.20253240
H       -5.67635766       1.50220110      -1.86789145
H       -6.03206704       2.88620827      -0.81081169
H       -7.26360326       2.31066527      -1.97069256
C       -7.61256466       0.28109287       0.39890605
H       -8.09410556      -0.41343015       1.00433508
O       -5.36762385       1.00710494       0.74693765
H       -5.59067159       1.29342036       1.66375136
9
Properties=species:S:1:pos:R:3 energy=-723.560304306273 pbc="F F F"
C       -6.47555520       1.99012354      -1.28072952
C       -6.88133070       1.07587046      -0.22213620
H       -5.66517220       1.50942797      -1.85713522
H       -6.04857834       2.89015511      -0.80453759
H       -7.25988236       2.30622279      -1.98550954
C       -7.61484657       0.28201818       0.39991961
H       -8.09817670      -0.41214912       1.00910420
O       -5.33728223       0.99521948       0.75893906
H       -5.58251671       1.29615958       1.66670220
9
Properties=species:S:1:pos:R:3 energy=-723.4152793040311 pbc="F F F"
C       -6.47804584       1.99243555      -1.28412137
C       -6.91014159       1.07367252      -0.24187058
H       -5.65560847       1.51605189      -1.84698474
H       -6.06375181       2.89320208      -0.79910091
H       -7.25599010       2.30264479      -1.99917665
C       -7.61739924       0.28278233       0.40040846
H       -8.10213903      -0.41129456       1.01357850
O       -5.30495021       0.98473060       0.77194975
H       -5.57531471       1.29882281       1.66993453
9
Properties=species:S:1:pos:R:3 energy=-723.3051613251403 pbc="F F F"
C       -6.48038631       1.99467768      -1.28754908
C       -6.93961579       1.07147623      -0.26154424
H       -5.64774348       1.52204966      -1.83747864
H       -6.07752075       2.89531737      -0.79455053
H       -7.25193403       2.29993179      -2.01160033
C       -7.62027224       0.28337871       0.40034439
H       -8.10599370      -0.41087606       1.01773570
O       -5.27073675       0.97569936       0.78585914
H       -5.56913796       1.30139326       1.67340059
9
Properties=species:S:1:pos:R:3 energy=-723.2257899816848 pbc="F F F"
C       -6.48255363       1.99685040      -1.29100117
C       -6.96952642       1.06930750      -0.28096589
H       -5.64165425       1.52739807      -1.82865558
H       -6.08981844       2.89646921      -0.79093536
H       -7.24772169       2.29808433      -2.02268701
C       -7.62351511       0.28380068       0.39969921
H       -8.10974185      -0.41090317       1.02155353
O       -5.23475078       0.96818683       0.80055665
H       -5.56405883       1.30385415       1.67705262
9
Properties=species:S:1:pos:R:3 energy=-723.1688664413433 pbc="F F F"
C       -6.48452482       1.99895417      -1.29446612
C       -6.99964659       1.06719225      -0.29994424
H       -5.63741776       1.53207392      -1.82055419
H       -6.10057816       2.89662579      -0.78830427
H       -7.24336063       2.29710292      -2.03234313
C       -7.62717743       0.28404164       0.39844469
H       -8.11338465      -0.41138545       1.02500971
O       -5.19710124       0.96225408       0.81593169
H       -5.56014971       1.30618869       1.68084286
9
Properties=species:S:1:pos:R:3 energy=-723.1252346791501 pbc="F F F"
C       -6.48627690       2.00098945      -1.29793245
C       -7.02974944       1.06515638      -0.31828800
H       -5.63511102       1.53605400      -1.81321312
H       -6.10973321       2.89575533      -0.78670616
H       -7.23885841       2.29698810      -2.04047514
C       -7.63130875       0.28409495       0.39655264
H       -8.11692323      -0.41233248       1.02808199
O       -5.15789708       0.95796217       0.83187370
H       -5.55748296       1.30838010       1.68472354
9
Properties=species:S:1:pos:R:3 energy=-723.0867246886936 pbc="F F F"
C       -6.48778688       2.00295671      -1.30138865
C       -7.05960808       1.06322580      -0.33580586
H       -5.63481105       1.53931513      -1.80667101
H       -6.11721686       2.89382602      -0.78618992
H       -7.23422256       2.29774040      -2.04698947
C       -7.63595863       0.28395399       0.39399485
H       -8.12035873      -0.41375381       1.03074808
O       -5.11724723       0.95537217       0.84827209
H       -5.55613096       1.31041159       1.68864689
