9
Properties=species:S:1:pos:R:3 energy=-724.8416681181226 pbc="F F F"
C       -7.07514200       0.65495800       1.06400100
C       -5.69546900       1.06081800       1.39239500
H       -7.63845500       0.35288200       1.96448500
H       -7.08869600      -0.19820000       0.37349600
H       -7.63338400       1.47492600       0.59401900
C       -4.84196200       1.20875600       2.37857800
H       -3.82854600       1.55987400       2.21736600
O       -5.02316200       0.96753600       3.76216600
H       -5.95123800       0.64481300       3.91879700
9
Properties=species:S:1:pos:R:3 energy=-724.8812932802036 pbc="F F F"
C       -7.07514993       0.65554184       1.06782366
C       -5.70033763       1.03961094       1.40854683
H       -7.65777870       0.41255653       1.96515289
H       -7.11224361      -0.21764823       0.40614125
H       -7.60044444       1.46778667       0.55750524
C       -4.83512209       1.20448839       2.37835496
H       -3.82309900       1.55860703       2.21292165
O       -5.02745304       0.96574782       3.76192155
H       -5.94442557       0.63967201       3.90693498
9
Properties=species:S:1:pos:R:3 energy=-724.9089538448821 pbc="F F F"
C       -7.07503913       0.65631162       1.07177304
C       -5.70573339       1.01840521       1.42604038
H       -7.67487117       0.47239380       1.96363308
H       -7.13672641      -0.23494470       0.43937220
H       -7.56742314       1.45822104       0.52217663
C       -4.82838394       1.20018778       2.37853840
H       -3.81832459       1.55727481       2.20775229
O       -5.03038564       0.96451792       3.76174283
H       -5.93916659       0.63399554       3.89427414
9
Properties=species:S:1:pos:R:3 energy=-724.9259725596248 pbc="F F F"
C       -7.07480962       0.65725563       1.07583875
C       -5.71163612       0.99723811       1.44480129
H       -7.68976210       0.53227406       1.95998676
H       -7.16206621      -0.25010885       0.47311267
H       -7.53438572       1.44631395       0.48806168
C       -4.82175985       1.19586463       2.37911586
H       -3.81421867       1.55587910       2.20189113
O       -5.03199718       0.96382797       3.76162508
H       -5.93541854       0.62781841       3.88086979
9
Properties=species:S:1:pos:R:3 energy=-724.9331869611469 pbc="F F F"
C       -7.07446137       0.65836218       1.08001037
C       -5.71802567       0.97614695       1.46475519
H       -7.70248116       0.59207756       1.95427514
H       -7.18818484      -0.26316010       0.50728646
H       -7.50139779       1.43215023       0.45518886
C       -4.81526209       1.19152940       2.38007486
H       -3.81077713       1.55442169       2.19537139
O       -5.03232506       0.96365966       3.76156353
H       -5.93313888       0.62117544       3.86677720
9
Properties=species:S:1:pos:R:3 energy=-724.9309999815313 pbc="F F F"
C       -7.07399439       0.65961955       1.08427750
C       -5.72488188       0.95516902       1.48582773
H       -7.71305802       0.65168455       1.94655939
H       -7.21500411      -0.27411788       0.54181738
H       -7.46852497       1.41581470       0.42358668
C       -4.80890298       1.18719256       2.38140295
H       -3.80799590       1.55290436       2.18822626
O       -5.03140665       0.96399469       3.76155343
H       -5.93228509       0.61410145       3.85205167
9
Properties=species:S:1:pos:R:3 energy=-724.9194192865607 pbc="F F F"
C       -7.07340869       0.66101605       1.08862975
C       -5.73218459       0.93434163       1.50794454
H       -7.72152237       0.71097528       1.93690073
H       -7.24244584      -0.28300161       0.57662924
H       -7.43583288       1.39739221       0.39328362
C       -4.80269478       1.18286458       2.38308767
H       -3.80587086       1.55132888       2.18048897
O       -5.02927934       0.96481473       3.76159000
H       -5.93281465       0.60663125       3.83674849
9
Properties=species:S:1:pos:R:3 energy=-724.8980877500937 pbc="F F F"
C       -7.07270425       0.66253998       1.09305671
C       -5.73991365       0.91370207       1.53103127
H       -7.72790387       0.76983001       1.92536035
H       -7.27043185      -0.28983074       0.61164583
H       -7.40338711       1.37696758       0.36430818
C       -4.79664980       1.17855591       2.38511653
H       -3.80439792       1.54969704       2.17219271
O       -5.02598052       0.96610149       3.76166848
H       -5.93468502       0.59879966       3.82092295
9
Properties=species:S:1:pos:R:3 energy=-724.8663106694548 pbc="F F F"
C       -7.07188109       0.66417962       1.09754797
C       -5.74804888       0.89328766       1.55501355
H       -7.73223222       0.82812898       1.91199943
H       -7.29888396      -0.29462468       0.64679098
H       -7.37125329       1.35462566       0.33668884
C       -4.79078031       1.17427701       2.38747709
H       -3.80357299       1.54801061       2.16337071
O       -5.02154757       0.96783664       3.76178411
H       -5.93785369       0.59064151       3.80463033
9
Properties=species:S:1:pos:R:3 energy=-724.8230875251944 pbc="F F F"
C       -7.07093918       0.66592328       1.10209314
C       -5.75657014       0.87313568       1.57981702
H       -7.73453707       0.88575244       1.89687918
H       -7.32772399      -0.29740286       0.68198849
H       -7.33949704       1.33045126       0.31045410
C       -4.78509863       1.17003836       2.39015687
H       -3.80339196       1.54627137       2.15405616
O       -5.01601787       0.97000188       3.76193213
H       -5.94227812       0.58219159       3.78792593
9
Properties=species:S:1:pos:R:3 energy=-724.7671573272884 pbc="F F F"
C       -7.06987854       0.66775926       1.10668181
C       -5.76545727       0.85328345       1.60536733
H       -7.73484811       0.94258065       1.88006078
H       -7.35687375      -0.29818472       0.71716216
H       -7.30818396       1.30452923       0.28563245
C       -4.77961702       1.16585040       2.39314340
H       -3.80385074       1.54448110       2.14428228
O       -5.00942881       0.97257889       3.76210776
H       -5.94791580       0.57348474       3.77086503
9
Properties=species:S:1:pos:R:3 energy=-724.6970667046979 pbc="F F F"
C       -7.06869917       0.66967585       1.11130358
C       -5.77469011       0.83376825       1.63159010
H       -7.73319501       0.99849385       1.86160544
H       -7.38625507      -0.29698968       0.75223580
H       -7.27737967       1.27694440       0.26225238
C       -4.77434779       1.16172362       2.39642423
H       -3.80494524       1.54264158       2.13408228
O       -5.00181777       0.97554936       3.76230625
H       -5.95472418       0.56455578       3.75350293
9
Properties=species:S:1:pos:R:3 energy=-724.6112690397077 pbc="F F F"
C       -7.06740106       0.67166134       1.11594805
C       -5.78424850       0.81462740       1.65841099
H       -7.72960745       1.05337230       1.84157434
H       -7.41578975      -0.29383718       0.78713322
H       -7.24714978       1.24778160       0.24034238
C       -4.76930322       1.15766846       2.39998689
H       -3.80667135       1.54075458       2.12348937
O       -4.99322214       0.97889498       3.76252283
H       -5.96266075       0.55543951       3.73589491
9
Properties=species:S:1:pos:R:3 energy=-724.50826070462 pbc="F F F"
C       -7.06598420       0.67370404       1.12060482
C       -5.79411228       0.79589820       1.68575562
H       -7.72411511       1.10709625       1.82002869
H       -7.44539963      -0.28874663       0.82177823
H       -7.21755992       1.21712566       0.21993095
C       -4.76449560       1.15369540       2.40381891
H       -3.80902498       1.53882189       2.11253676
O       -4.98367931       0.98259744       3.76275273
H       -5.97168298       0.54617075       3.71809627
9
Properties=species:S:1:pos:R:3 energy=-724.3867580711868 pbc="F F F"
C       -7.06444861       0.67579225       1.12526348
C       -5.80426130       0.77761794       1.71354965
H       -7.71674766       1.15954594       1.79702968
H       -7.47500651      -0.28173747       0.85609463
H       -7.18867568       1.18506142       0.20104658
C       -4.75993722       1.14981489       2.40790783
H       -3.81200203       1.53684529       2.10125766
O       -4.97322665       0.98663842       3.76299120
H       -5.98174835       0.53678433       3.70016230
9
Properties=species:S:1:pos:R:3 energy=-724.2459168903034 pbc="F F F"
C       -7.06279427       0.67791425       1.12991363
C       -5.81467539       0.75982393       1.74171870
H       -7.70753478       1.21060163       1.77263850
H       -7.50453222      -0.27282913       0.89000623
H       -7.16056269       1.15167370       0.18371776
C       -4.75564038       1.14603740       2.41224118
H       -3.81559841       1.53482655       2.08968527
O       -4.96190155       0.99099962       3.76323347
H       -5.99281432       0.52731505       3.68214828
9
Properties=species:S:1:pos:R:3 energy=-724.0855955949544 pbc="F F F"
C       -7.06102119       0.68005835       1.13454486
C       -5.82533440       0.74255346       1.77018842
H       -7.69650614       1.26014357       1.74691634
H       -7.53389858      -0.26204103       0.92343683
H       -7.13328655       1.11704735       0.16797297
C       -4.75161735       1.14237340       2.41680650
H       -3.81981001       1.53276744       2.07785281
O       -4.94974141       0.99566271       3.76347477
H       -6.00483838       0.51779775       3.66410950
9
Properties=species:S:1:pos:R:3 energy=-723.9066668513477 pbc="F F F"
C       -7.05912936       0.68221284       1.13914678
C       -5.83621817       0.72584385       1.79888445
H       -7.68369142       1.30805200       1.71992441
H       -7.56302739      -0.24939261       0.95631025
H       -7.10691289       1.08126720       0.15384071
C       -4.74788044       1.13883333       2.42159131
H       -3.82463275       1.53066976       2.06579349
O       -4.93678359       1.00060940       3.76371033
H       -6.01777798       0.50826722       3.64610126
9
Properties=species:S:1:pos:R:3 energy=-723.7113881817348 pbc="F F F"
C       -7.05711878       0.68436602       1.14370899
C       -5.84730655       0.70973239       1.82773242
H       -7.66912030       1.35420719       1.69172390
H       -7.59184049      -0.23490329       0.98855029
H       -7.08150731       1.04441807       0.14134948
C       -4.74444193       1.13542768       2.42658317
H       -3.83006252       1.52853528       2.05354051
O       -4.92306549       1.00582136       3.76393541
H       -6.03159062       0.49875830       3.62817884
9
Properties=species:S:1:pos:R:3 energy=-723.5038522170686 pbc="F F F"
C       -7.05498946       0.68650619       1.14822108
C       -5.85857937       0.69425637       1.85665798
H       -7.65282246       1.39848938       1.66237599
H       -7.62025969      -0.21859250       1.02008076
H       -7.05713544       1.00658480       0.13052776
C       -4.74131412       1.13216689       2.43176959
H       -3.83609522       1.52636577       2.04112709
O       -4.90862449       1.01128029       3.76414522
H       -6.04623376       0.48930580       3.61039753
9
Properties=species:S:1:pos:R:3 energy=-723.290553545494 pbc="F F F"
C       -7.05274138       0.68862164       1.15267264
C       -5.87001647       0.67945311       1.88558676
H       -7.63482756       1.44077881       1.63194189
H       -7.64820681      -0.20047968       1.05082547
H       -7.03386288       0.96785223       0.12140405
C       -4.73850928       1.12906144       2.43713812
H       -3.84272677       1.52416302       2.02858643
O       -4.89349798       1.01696787       3.76433501
H       -6.06166487       0.47994454       3.59281262
9
Properties=species:S:1:pos:R:3 energy=-723.0812077337949 pbc="F F F"
C       -7.05037455       0.69070067       1.15705328
C       -5.88159770       0.66535991       1.91444441
H       -7.61516529       1.48095575       1.60048279
H       -7.67560366      -0.18058424       1.08070822
H       -7.01175524       0.92830519       0.11400684
C       -4.73603972       1.12612179       2.44267629
H       -3.84995305       1.52192881       2.01595175
O       -4.87772334       1.02286580       3.76450001
H       -6.07784144       0.47070933       3.57547941
9
Properties=species:S:1:pos:R:3 energy=-722.8910362890362 pbc="F F F"
C       -7.04788897       0.69273158       1.16135260
C       -5.89330290       0.65201406       1.94315656
H       -7.59386532       1.51890044       1.56805989
H       -7.70237207      -0.15892562       1.10965281
H       -6.99087815       0.88802850       0.10836461
C       -4.73391772       1.12335840       2.44837163
H       -3.85776999       1.51966490       2.00325626
O       -4.86133795       1.02895575       3.76463546
H       -6.09472092       0.46163498       3.55845318
9
Properties=species:S:1:pos:R:3 energy=-722.7637467508525 pbc="F F F"
C       -7.04528464       0.69470267       1.16556018
C       -5.90511192       0.63945286       1.97164885
H       -7.57095733       1.55449313       1.53473438
H       -7.72843385      -0.13552324       1.13758307
H       -6.97129721       0.84710701       0.10450587
C       -4.73215557       1.12078173       2.45421168
H       -3.86617347       1.51737309       1.99053316
O       -4.84437920       1.03521942       3.76473659
H       -6.11226081       0.45275633       3.54178922
9
Properties=species:S:1:pos:R:3 energy=-722.7888605815191 pbc="F F F"
C       -7.04256155       0.69660223       1.16966564
C       -5.91700458       0.62771363       1.99984693
H       -7.54647100       1.58761408       1.50056745
H       -7.75371082      -0.11039655       1.16442279
H       -6.95307804       0.80562554       0.10245910
C       -4.73076556       1.11840224       2.46018398
H       -3.87515940       1.51505515       1.97781566
O       -4.82688448       1.04163850       3.76479865
H       -6.13041856       0.44410818       3.52554283
9
Properties=species:S:1:pos:R:3 energy=-722.9219560936447 pbc="F F F"
C       -7.03971970       0.69841855       1.17365856
C       -5.92896074       0.61683365       2.02767642
H       -7.52043599       1.61814353       1.46562030
H       -7.77812481      -0.08356495       1.19009578
H       -6.93628626       0.76366893       0.10225279
C       -4.72975998       1.11623041       2.46627605
H       -3.88472369       1.51271286       1.96513698
O       -4.80889117       1.04819467       3.76481685
H       -6.14915166       0.43572536       3.50976928
9
Properties=species:S:1:pos:R:3 energy=-723.1043890203258 pbc="F F F"
C       -7.03675909       0.70013994       1.17752854
C       -5.94096024       0.60685023       2.05506297
H       -7.49288200       1.64596173       1.42995412
H       -7.80159762      -0.05504789       1.21452584
H       -6.92098747       0.72132201       0.10391544
C       -4.72915112       1.11427668       2.47247544
H       -3.89486224       1.51034799       1.95253032
O       -4.79043665       1.05486963       3.76478645
H       -6.16841757       0.42764267       3.49452387
9
Properties=species:S:1:pos:R:3 energy=-723.3114450936143 pbc="F F F"
C       -7.03367972       0.70175470       1.18126519
C       -5.95298292       0.59780067       2.08193223
H       -7.46383868       1.67094894       1.39363012
H       -7.82405108      -0.02486479       1.23763680
H       -6.90724729       0.67866962       0.10747553
C       -4.72895128       1.11255154       2.47876967
H       -3.90557095       1.50796233       1.94002889
O       -4.77155831       1.06164505       3.76470268
H       -6.18817377       0.41989495       3.47986190
9
Properties=species:S:1:pos:R:3 energy=-723.5292164637569 pbc="F F F"
C       -7.03048159       0.70325111       1.18485809
C       -5.96500861       0.58972228       2.10820982
H       -7.43333573       1.69298540       1.35670948
H       -7.84540700       0.00696492       1.25935244
H       -6.89513134       0.63579658       0.11296157
C       -4.72917273       1.11106543       2.48514629
H       -3.91684572       1.50555766       1.92766591
O       -4.75229354       1.06850263       3.76456076
H       -6.20837774       0.41251699       3.46583864
9
Properties=species:S:1:pos:R:3 energy=-723.7474310816514 pbc="F F F"
C       -7.02716469       0.70461748       1.18829685
C       -5.97701717       0.58265235       2.13382139
H       -7.40140281       1.71195137       1.31925339
H       -7.86558720       0.04042181       1.27959659
H       -6.88470523       0.59278774       0.12040203
C       -4.72982778       1.10982882       2.49159282
H       -3.92868246       1.50313575       1.91547458
O       -4.73267971       1.07542406       3.76435595
H       -6.22898695       0.40554363       3.45250940
9
Properties=species:S:1:pos:R:3 energy=-723.9581030251704 pbc="F F F"
C       -7.02372929       0.70584241       1.19157112
C       -5.98898839       0.57662681       2.15869389
H       -7.36807127       1.72773077       1.28132362
H       -7.88451488       0.07548463       1.29829480
H       -6.87603256       0.54972795       0.12982332
C       -4.73092805       1.10885180       2.49809673
H       -3.94107636       1.50069848       1.90348764
O       -4.71275469       1.08239099       3.76408367
H       -6.24995851       0.39900915       3.43992821
9
Properties=species:S:1:pos:R:3 energy=-724.1556116667691 pbc="F F F"
C       -7.02018137       0.70692145       1.19467184
C       -6.00090105       0.57165011       2.18278459
H       -7.33341106       1.74029213       1.24299461
H       -7.90214479       0.11209008       1.31541315
H       -6.86913090       0.50670309       0.14120350
C       -4.73247012       1.10813585       2.50464364
H       -3.95400642       1.49825024       1.89172686
O       -4.69256719       1.08938436       3.76374416
H       -6.27124109       0.39293569       3.42812067
9
Properties=species:S:1:pos:R:3 energy=-724.3364614302275 pbc="F F F"
C       -7.01653273       0.70785713       1.19759121
C       -6.01273292       0.56769518       2.20608102
H       -7.29753068       1.74968855       1.20435355
H       -7.91846324       0.15013287       1.33095822
H       -6.86397174       0.46379995       0.15447231
C       -4.73443548       1.10767381       2.51121736
H       -3.96743544       1.49579787       1.88020307
O       -4.67217681       1.09638439       3.76334239
H       -6.29277497       0.38733325       3.41708388
9
Properties=species:S:1:pos:R:3 energy=-724.498649247533 pbc="F F F"
C       -7.01279537       0.70865226       1.20032151
C       -6.02446171       0.56473360       2.22857206
H       -7.26054030       1.75597681       1.16548817
H       -7.93345792       0.18950584       1.34493835
H       -6.86052457       0.42110540       0.16955740
C       -4.73680498       1.10745817       2.51780161
H       -3.98132551       1.49334834       1.86892661
O       -4.65164361       1.10337129       3.76288357
H       -6.31450004       0.38221128       3.40681372
9
Properties=species:S:1:pos:R:3 energy=-724.6414221936952 pbc="F F F"
C       -7.00898132       0.70930967       1.20285500
C       -6.03606516       0.56273695       2.25024657
H       -7.22255011       1.75921372       1.12648621
H       -7.94711651       0.23010187       1.35736188
H       -6.85875890       0.37870630       0.18638642
C       -4.73955947       1.10748141       2.52438012
H       -3.99563870       1.49090861       1.85790784
O       -4.63102764       1.11032522       3.76237290
H       -6.33635620       0.37757925       3.39730605
9
Properties=species:S:1:pos:R:3 energy=-724.765048542601 pbc="F F F"
C       -7.00510260       0.70983219       1.20518396
C       -6.04752097       0.56167679       2.27109342
H       -7.18367029       1.75945604       1.08743540
H       -7.95942671       0.27181380       1.36823714
H       -6.85864421       0.33668952       0.20488702
C       -4.74267979       1.10773602       2.53093662
H       -4.01033712       1.48848564       1.84715710
O       -4.61038896       1.11722639       3.76181558
H       -6.35828334       0.37344662       3.38855675
9
Properties=species:S:1:pos:R:3 energy=-724.8705948507348 pbc="F F F"
C       -7.00117124       0.71022262       1.20730066
C       -6.05880687       0.56152469       2.29110149
H       -7.14401104       1.75676056       1.04842346
H       -7.97037620       0.31453450       1.37757248
H       -6.86014999       0.29514190       0.22498683
C       -4.74614679       1.10821447       2.53745484
H       -4.02538285       1.48608640       1.83668474
O       -4.58978764       1.12405499       3.76121680
H       -6.38022137       0.36982286       3.38056170
9
Properties=species:S:1:pos:R:3 energy=-724.9597157847879 pbc="F F F"
C       -6.99719925       0.71048379       1.20919736
C       -6.06990059       0.56225225       2.31025964
H       -7.10368252       1.75118409       1.00953814
H       -7.97995268       0.35815684       1.38537623
H       -6.86324575       0.25415032       0.24661351
C       -4.74994131       1.10890925       2.54391849
H       -4.04073798       1.48371784       1.82650111
O       -4.56928374       1.13079121       3.76058176
H       -6.40211018       0.36671742       3.37331676
9
Properties=species:S:1:pos:R:3 energy=-725.0344601262697 pbc="F F F"
C       -6.99319866       0.71061853       1.21086633
C       -6.08077984       0.56383101       2.32855673
H       -7.06279493       1.74278339       0.97086716
H       -7.98814382       0.40257366       1.39165674
H       -6.86790098       0.21380164       0.26969470
C       -4.75404420       1.10981283       2.55031131
H       -4.05636460       1.48138693       1.81661654
O       -4.54893731       1.13741523       3.75991567
H       -6.42388966       0.36413978       3.36681781
9
Properties=species:S:1:pos:R:3 energy=-725.0970948571644 pbc="F F F"
C       -6.98918149       0.71062965       1.21229985
C       -6.09142234       0.56623257       2.34598164
H       -7.02145844       1.73161525       0.93249826
H       -7.99493731       0.44767783       1.39642234
H       -6.87408517       0.17418270       0.29415805
C       -4.75843630       1.11091771       2.55661702
H       -4.07222481       1.47910063       1.80704140
O       -4.52880842       1.14390725       3.75922372
H       -6.44549972       0.36209940       3.36106071
9
Properties=species:S:1:pos:R:3 energy=-725.1499488471875 pbc="F F F"
C       -6.98515976       0.71051998       1.21349019
C       -6.10180582       0.56942849       2.36252323
H       -6.97978325       1.71773647       0.89451917
H       -8.00032085       0.49336221       1.39968137
H       -6.88176782       0.13538038       0.31993120
C       -4.76309846       1.11221635       2.56281935
H       -4.08828067       1.47686591       1.79778603
O       -4.50895712       1.15024747       3.75851112
H       -6.46688025       0.36060573       3.35604135
9
Properties=species:S:1:pos:R:3 energy=-725.1952777236743 pbc="F F F"
C       -6.98114549       0.71029234       1.21442960
C       -6.11190799       0.57339035       2.37817037
H       -6.93787953       1.70120383       0.85701762
H       -8.00428212       0.53951966       1.40144217
H       -6.89091842       0.09748154       0.34694179
C       -4.76801153       1.11370125       2.56890203
H       -4.10449430       1.47468972       1.78886078
O       -4.48944347       1.15641606       3.75778305
H       -6.48797114       0.35966825       3.35175560
9
Properties=species:S:1:pos:R:3 energy=-725.235151578395 pbc="F F F"
C       -6.97715070       0.70994955       1.21511037
C       -6.12170658       0.57808972       2.39291193
H       -6.89585746       1.68207412       0.82008134
H       -8.00680881       0.58604305       1.40171308
H       -6.90150647       0.06057303       0.37511748
C       -4.77315635       1.11536488       2.57484877
H       -4.12082778       1.47257904       1.78027598
O       -4.47032754       1.16239322       3.75704472
H       -6.50871231       0.35929641       3.34819932
9
Properties=species:S:1:pos:R:3 energy=-725.2713669986697 pbc="F F F"
C       -6.97318742       0.70949443       1.21552477
C       -6.13117931       0.58349817       2.40673678
H       -6.85382724       1.66040411       0.78379807
H       -8.00788860       0.63282522       1.40050244
H       -6.91350145       0.02474171       0.40438591
C       -4.77851377       1.11719973       2.58064331
H       -4.13724319       1.47054081       1.77204200
O       -4.45166939       1.16815914       3.75630133
H       -6.52904363       0.35949968       3.34536839
9
Properties=species:S:1:pos:R:3 energy=-725.3053844187781 pbc="F F F"
C       -6.96926767       0.70892981       1.21566505
C       -6.14030390       0.58958727       2.41963378
H       -6.81189904       1.63625061       0.74825554
H       -8.00750919       0.67975905       1.39781859
H       -6.92687287      -0.00992555       0.43467472
C       -4.78406463       1.11919827       2.58626938
H       -4.15370262       1.46858201       1.76416918
O       -4.43352906       1.17369401       3.75555808
H       -6.54890502       0.36028752       3.34325868
9
Properties=species:S:1:pos:R:3 energy=-725.3382909406386 pbc="F F F"
C       -6.96540347       0.70825850       1.21552349
C       -6.14905807       0.59632861       2.43159181
H       -6.77018304       1.60967039       0.71354149
H       -8.00565826       0.72673738       1.39366986
H       -6.94159022      -0.04334189       0.46591156
C       -4.78978978       1.12135299       2.59171069
H       -4.17016817       1.46670960       1.75666787
O       -4.41596664       1.17897803       3.75482016
H       -6.56823636       0.36166940       3.34186607
9
Properties=species:S:1:pos:R:3 energy=-725.3707877302747 pbc="F F F"
C       -6.96160684       0.70748332       1.21509237
C       -6.15741954       0.60369376       2.44259972
H       -6.72878943       1.58072024       0.67974364
H       -8.00232349       0.77365309       1.38806461
H       -6.95762300      -0.07542046       0.49802408
C       -4.79567007       1.12365637       2.59695098
H       -4.18660192       1.46493053       1.74954841
O       -4.39904217       1.18399138       3.75409277
H       -6.58697755       0.36365478       3.34118642
9
Properties=species:S:1:pos:R:3 energy=-725.4031998693306 pbc="F F F"
C       -6.95788980       0.70660711       1.21436395
C       -6.16536603       0.61165428       2.45264640
H       -6.68782840       1.54945694       0.64694972
H       -7.99749258       0.82039903       1.38101115
H       -6.97494069      -0.10607439       0.53093992
C       -4.80168633       1.12610089       2.60197398
H       -4.20296597       1.46325178       1.74282115
O       -4.38281571       1.18871425       3.75338112
H       -6.60506850       0.36625312       3.34121561
9
Properties=species:S:1:pos:R:3 energy=-725.4355053646111 pbc="F F F"
C       -6.95426437       0.70563267       1.21333049
C       -6.17287526       0.62018175       2.46172070
H       -6.64741012       1.51593729       0.61524748
H       -7.99115322       0.86686806       1.37251784
H       -6.99351279      -0.13521682       0.56458673
C       -4.80781942       1.12867904       2.60676340
H       -4.21922239       1.46168029       1.73649644
O       -4.36734733       1.19312684       3.75269040
H       -6.62244909       0.36947388       3.34194951
9
Properties=species:S:1:pos:R:3 energy=-725.4673790055461 pbc="F F F"
C       -6.95074258       0.70456284       1.21198428
C       -6.17992496       0.62924774       2.46981150
H       -6.60764478       1.48021807       0.58472464
H       -7.98329308       0.91295304       1.36259302
H       -7.01330881      -0.16276089       0.59889215
C       -4.81405019       1.13138329       2.61130297
H       -4.23533329       1.46022305       1.73058462
O       -4.35269708       1.19720933       3.75202582
H       -6.63905923       0.37332653       3.34338400
9
Properties=species:S:1:pos:R:3 energy=-725.4982460651236 pbc="F F F"
C       -6.94733645       0.70340043       1.21031758
C       -6.18649285       0.63882383       2.47690766
H       -6.56864256       1.44235607       0.55546893
H       -7.97389987       0.95854684       1.35124502
H       -7.03429822      -0.18861975       0.63378383
C       -4.82035947       1.13420612       2.61557643
H       -4.25126075       1.45888700       1.72509605
O       -4.33892502       1.20094191       3.75139256
H       -6.65483881       0.37782054       3.34551495
9
Properties=species:S:1:pos:R:3 energy=-725.5273404811148 pbc="F F F"
C       -6.94405799       0.70214826       1.20832265
C       -6.19255664       0.64888160       2.48299806
H       -6.53051365       1.40240807       0.52756809
H       -7.96296126       1.00354230       1.33848218
H       -7.05645053      -0.21270652       0.66918941
C       -4.82672811       1.13714003       2.61956749
H       -4.26696686       1.45767912       1.72004107
O       -4.32609122       1.20430478       3.75079583
H       -6.66972773       0.38296536       3.34833822
9
Properties=species:S:1:pos:R:3 energy=-725.5537622884775 pbc="F F F"
C       -6.94091924       0.70080917       1.20599177
C       -6.19809406       0.65939261       2.48807155
H       -6.49336823       1.36043086       0.50110985
H       -7.95046495       1.04783230       1.32431284
H       -7.07973523      -0.23493436       0.70503654
C       -4.83313696       1.14017748       2.62325989
H       -4.28241371       1.45660636       1.71543003
O       -4.31425574       1.20727813       3.75024083
H       -6.68366588       0.38877045       3.35184969
9
Properties=species:S:1:pos:R:3 energy=-725.5765295513594 pbc="F F F"
C       -6.93793221       0.69938595       1.20331721
C       -6.20308283       0.67032843       2.49211701
H       -6.45731647       1.31648122       0.47618194
H       -7.93639862       1.09130970       1.30874534
H       -7.10412182      -0.25521640       0.74125287
C       -4.83956687       1.14331096       2.62663735
H       -4.29756338       1.45567568       1.71127328
O       -4.30347863       1.20984215       3.74973276
H       -6.69659317       0.39524529       3.35604524
9
Properties=species:S:1:pos:R:3 energy=-725.5946208797234 pbc="F F F"
C       -6.93510892       0.69788145       1.20029124
C       -6.20750066       0.68166065       2.49512331
H       -6.42246858       1.27061595       0.45287210
H       -7.92074995       1.13386734       1.29178802
H       -7.12957979      -0.27346577       0.77776604
C       -4.84599868       1.14653296       2.62968359
H       -4.31237797       1.45489405       1.70758116
O       -4.29381995       1.21197702       3.74927681
H       -6.70844949       0.40239934       3.36092073
9
Properties=species:S:1:pos:R:3 energy=-725.6070056521964 pbc="F F F"
C       -6.93246140       0.69629848       1.19690613
C       -6.21132529       0.69336084       2.49707930
H       -6.38893472       1.22289182       0.43126806
H       -7.90350665       1.17539810       1.27344922
H       -7.15607863      -0.28959563       0.81450370
C       -4.85241323       1.14983595       2.63238234
H       -4.32681957       1.45426844       1.70436402
O       -4.28533977       1.21366294       3.74887819
H       -6.71917474       0.41024205       3.36647204
9
Properties=species:S:1:pos:R:3 energy=-725.6126602221541 pbc="F F F"
C       -6.93000167       0.69463986       1.19315414
C       -6.21453443       0.70540056       2.49797387
H       -6.35682508       1.17336563       0.41145754
H       -7.88465638       1.21579483       1.25373727
H       -7.18358785      -0.30351910       0.85139349
C       -4.85879138       1.15321241       2.63471733
H       -4.34085026       1.45380580       1.70163222
O       -4.27809814       1.21488010       3.74854209
H       -6.72870881       0.41878289       3.37269505
9
Properties=species:S:1:pos:R:3 energy=-725.6105694974209 pbc="F F F"
C       -6.92774175       0.69290842       1.18902754
C       -6.21710580       0.71775139       2.49779588
H       -6.32624985       1.12209416       0.39352829
H       -7.86418685       1.25495040       1.23266053
H       -7.21207692      -0.31514933       0.88836305
C       -4.86511396       1.15665483       2.63667229
H       -4.35443214       1.45351309       1.69939608
O       -4.27215512       1.21560869       3.74827372
H       -6.73699160       0.42803133       3.37958561
9
Properties=species:S:1:pos:R:3 energy=-725.5997143406593 pbc="F F F"
C       -6.92569366       0.69110697       1.18451862
C       -6.21901713       0.73038491       2.49653420
H       -6.29731920       1.06913420       0.37756804
H       -7.84208574       1.29275766       1.21022731
H       -7.24151535      -0.32439946       0.92534004
C       -4.87136183       1.16015569       2.63823093
H       -4.36752729       1.45339728       1.69766598
O       -4.26757078       1.21582890       3.74807826
H       -6.74396301       0.43799683       3.38713961
9
Properties=species:S:1:pos:R:3 energy=-725.5790461013391 pbc="F F F"
C       -6.92386942       0.68923834       1.17961962
C       -6.22024613       0.74327269       2.49417769
H       -6.27014332       1.01454253       0.36366451
H       -7.81834074       1.32910948       1.18644598
H       -7.27187264      -0.33118262       0.96225211
C       -4.87751582       1.16370747       2.63937700
H       -4.38009780       1.45346533       1.69645224
O       -4.26440518       1.21552093       3.74796093
H       -6.74956294       0.44868885       3.39535292
