9
Properties=species:S:1:pos:R:3 energy=-722.7637467508525 pbc="F F F"
C       -7.04528464       0.69470267       1.16556018
C       -5.90511192       0.63945286       1.97164885
H       -7.57095733       1.55449313       1.53473438
H       -7.72843385      -0.13552324       1.13758307
H       -6.97129721       0.84710701       0.10450587
C       -4.73215557       1.12078173       2.45421168
H       -3.86617347       1.51737309       1.99053316
O       -4.84437920       1.03521942       3.76473659
H       -6.11226081       0.45275633       3.54178922
