9
Properties=species:S:1:pos:R:3 energy=-5230.163885011329 pbc="F F F"
C       -5.11356400       3.36440700       3.82945100
C       -5.14830200       1.88304100       3.65504800
H       -4.14816100       3.69690900       4.22492900
H       -5.90545100       3.69760000       4.51607900
H       -5.29397800       3.87664200       2.87306200
C       -4.05719800       1.03874700       3.96719000
H       -3.16488800       1.56207800       4.35500300
O       -4.06940700      -0.22109400       3.82506600
H       -6.04777700       1.41189400       3.27029100
