9
Properties=species:S:1:pos:R:3 energy=-5227.005832416971 pbc="F F F"
C       -1.00129767      -0.11914138      -0.80136651
C        0.04370986      -0.21059933       0.17742061
H       -1.81602574       0.54010030      -0.44886748
H       -1.46418212      -1.10850888      -0.97225477
H       -0.66652419       0.27155999      -1.77490685
C        1.32131550       0.20349191       0.43781377
H        2.22284141       0.42163093      -0.09494834
O        1.30267794       0.24112189       1.77126666
H        0.05748501      -0.23965542       1.70584291
