9
Properties=species:S:1:pos:R:3 energy=-721.3237098036271 pbc="F F F"
C       -7.16780547       0.75142635       1.10161591
C       -5.86186589       1.30449354       1.28292860
H       -7.86865816       1.24773177       1.83556056
H       -7.14312264      -0.35831776       1.31883257
H       -7.57858443       0.89488558       0.07010728
C       -4.78289600       1.63318399       1.72077557
H       -4.15284286       1.41744615       3.15079531
O       -4.98050268       0.83589529       3.79386089
H       -5.23977586      -0.00038191       3.39082630
