24
Properties=species:S:1:pos:R:3 energy=-19713.04065865924 pbc="F F F"
O        2.61506561       0.43180400       2.95728921
C        2.51517523      -0.15548565       1.95448583
C        2.18354156      -0.52510518       0.68568756
C        0.76524223      -0.39060052       0.21682889
C        0.45411662       1.04683888      -0.23491146
C       -1.00766885       1.23079488      -0.64959584
H       -1.23733962       2.29304907      -0.89802029
C       -1.38680470       0.34853812      -1.85631254
O       -0.81112808       0.50129552      -2.90911804
C       -2.47683196      -0.64682214      -1.64268012
H       -3.02195879       2.00210724       1.29211313
H        2.94840012      -0.52477546      -0.09061607
H        2.51819335      -2.10675401       0.85224860
H        0.59412917      -1.09271855      -0.62650695
H        0.05243690      -0.69289806       1.01274324
H        0.69740706       1.75872203       0.57850017
H        1.10518361       1.32436373      -1.09208655
H       -3.38201574      -0.16429863      -1.23329029
H       -2.75010156      -1.16225578      -2.57299301
H       -2.18929631      -1.40442505      -0.89915960
O       -1.76030343       0.85033889       0.53414791
O       -3.02426765       1.49903843       0.42335935
O        3.17489452      -2.65017838       1.69387999
O        3.42393071      -1.77057339       2.50400688
