9
Properties=species:S:1:pos:R:3 energy=-5229.971044154234 pbc="F F F"
C       -6.06000300       6.66651900      -4.42200500
C       -6.49854100       7.50635400      -5.42983200
H       -6.34902400       5.62270600      -4.37105600
H       -5.40595700       7.04399700      -3.64872200
H       -5.48561200       9.28639800      -4.76669500
C       -6.13694500       8.84859500      -5.50956000
H       -6.50915900       9.45981400      -6.31970800
O       -7.34536300       7.06248900      -6.45136900
H       -7.54993200       6.10102200      -6.31803300
