9
Properties=species:S:1:pos:R:3 energy=-5226.838050081938 pbc="F F F"
C        0.33947718       0.43635800      -0.82110831
C        0.04565306      -0.13924660       0.51312694
H        0.24699005       1.49808353      -0.96595692
H        1.05146174      -0.05615356      -1.45931370
H       -0.95382739      -0.13334855      -1.13522724
C       -1.13515822      -0.65595706       0.21548380
H       -1.99148772      -1.18056794       0.47183967
O        0.77068867      -0.12647021       1.65514908
H        1.62620264       0.35730241       1.52600669
